version 3
run General-0-20220131-12:35:07-7843
attr configname General
attr datetime 20220131-12:35:07
attr datetimef 20220131-123507
attr experiment General
attr inifile HybridMeter.ini
attr iterationvars ""
attr iterationvarsd ""
attr iterationvarsf ""
attr measurement ""
attr network HybridMeter_Net
attr processid 7843
attr repetition 0
attr replication #0
attr resultdir results
attr runnumber 0
attr seedset 0
config network HybridMeter_Net
config **.*.*.BERFilename "\"./BERDATA/RSC_M_2.txt\""
config **.*.*.standaloneRFNetwork false
config **.radio.centerFrequency "2450 MHz"
config **.radio.bandwidth "2.8 MHz"
config **.radio.headerLength "(1 *8 + 7 + 1) * 16us"
config **.transmitter.modulation "\"BPSK\""
config **.transmitter.bitrate 250kbps
config **.transmitter.power 2.24mW
config **.receiver.modulation "\"BPSK\""
config **.receiver.sensitivity -100dBm
config **.receiver.minInterferencePower -120dBm
config *.RfBaseNode.mobility.typename StationaryMobility
config *.PLC_BN.hasRF true
config *.PLC_BN.hasPRIME true
config *.PLC_BN.mac.ISendtoRFPHY true
config *.RfServiceNode.mobility.typename StationaryMobility
config *.PLC_SN[*].hasRF true
config *.PLC_SN[*].hasPRIME true
config *.PLC_SN[*].mac.ISendtoRFPHY true
config sim-time-limit 1000s
config **.endSimTime 50000
config **.uniform_d true
config **.fixedArch false
config **.recordDLMSCOSEMAppMsgRoundtripLatency true
config **.recordDLMSCOSEMAppMsgLatency false
config **.recordDLMSCOSEMAppTTRAllMeters true
config **.record_app_roundtrip true
config **.record_PRO_Num_Switches true
config **.record_REG true
config **.printLog false
config **.PLC_BN.mac.DEFAULT_ALV_TIME 120
config **.BER_SIM -1.0
config **.PLC_SN[*].mac.DEFAULT_COMMUNICATION_MODE 0
config **.PLC_SN[*].mac.RANDOM_REGISTRATION_NUMBER 10
config **.PLC_SN[*].mac.RANDOM_REGISTRATION false
config **.PLC_SN[*].mac.ALV_OFFSET 60
config **.PLC_SN[*].mac.SWITCH_CAPABILITY true
config **.mac.PRN_WAIT_TIME 30
config **.interAppMsgTime 10.0
config **.firstAppMsgAt 300.0
config **.PLC_BN.mac.promotionNode_EUI48 -1
config **.PLC_BN.mac.promotionNode_2ndLevel_EUI48 -1
config **.ctrlIndComMode 0
config **.initialIndComMode 0
config **.usePRM true
config **.interPromotionTime 200
config **.appBlockBehaviour true
config **.AppReqMsgSize_Bytes 70
config **.AppResMsgSize_Bytes 1568
config **.AppGetReqSize_Bytes 71
config **.AppGetReqNextSize_Bytes 14
config **.AppResBlockSize_Bytes 239
config **.AppProcessingTime 5.0
config **.llc.llcReTxTimer 10
config **.PLC_SN[*].mac.allowSwitchIfDBPSK_FEC true
config **.PLC_SN[*].mac.refreshSwitchPower false
config **.PLC_SN[*].mac.numDisconnectionsBeforePRN 5
config **.alvNChances 3
config **.plcBus[*].impulsive false
config **.sequentialPollingInterval 9
config **.useSequentialPolling true
config **.sendALV true
config **.appTimeOut 50
config **.txQueueLimit 10000
config warmup-period 5s
config **.llc.CIMTUSizeBytes 256
config **.llc.CIMTUSizeBits 2048
config **.llc.defaultWindowSize 1
config repeat 500
config **.appBehavior 2001
config **.nBranches 2
config **.PLC_SN[*].mac.CAP_CFP false
config **.PLC_SN[*].llc.CAP_CFP false
config **.PLC_BN.mac.policy 1
config **.plcBus[*].nullAttenuation true
config **.nHostsPerBranch 3
config **.attFileAddress "\"topologiasLINTER/att/mil_nodos_att.txt\""
config **.CAP_CFP_NUM_SN -1
config **.busLength 400
config **.positions "\"25 38 37\""
config **.archFileAddress "\"\""

vector 0 HybridMeter_Net.PLC_BN.mac PLCAccessDelay ETV
vector 1 HybridMeter_Net.PLC_BN.rflan.wlan.radio transmissionState:vector ETV
attr interpolationmode sample-hold
attr source transmissionStateChanged
attr title "Radio transmission state, vector"
vector 2 HybridMeter_Net.PLC_SN[0].rflan.wlan.radio receptionState:vector ETV
attr interpolationmode sample-hold
attr source receptionStateChanged
attr title "Radio reception state, vector"
vector 3 HybridMeter_Net.PLC_SN[1].rflan.wlan.radio receptionState:vector ETV
attr interpolationmode sample-hold
attr source receptionStateChanged
attr title "Radio reception state, vector"
vector 4 HybridMeter_Net.PLC_SN[2].rflan.wlan.radio receptionState:vector ETV
attr interpolationmode sample-hold
attr source receptionStateChanged
attr title "Radio reception state, vector"
vector 5 HybridMeter_Net.PLC_SN[3].rflan.wlan.radio receptionState:vector ETV
attr interpolationmode sample-hold
attr source receptionStateChanged
attr title "Radio reception state, vector"
vector 6 HybridMeter_Net.PLC_SN[4].rflan.wlan.radio receptionState:vector ETV
attr interpolationmode sample-hold
attr source receptionStateChanged
attr title "Radio reception state, vector"
vector 7 HybridMeter_Net.PLC_SN[5].rflan.wlan.radio receptionState:vector ETV
attr interpolationmode sample-hold
attr source receptionStateChanged
attr title "Radio reception state, vector"
vector 8 HybridMeter_Net.PLC_SN[0].mac I_received_BCN ETV
vector 9 HybridMeter_Net.PLC_SN[1].mac I_received_BCN ETV
vector 10 HybridMeter_Net.PLC_SN[2].mac I_received_BCN ETV
vector 11 HybridMeter_Net.PLC_SN[3].mac I_received_BCN ETV
vector 12 HybridMeter_Net.PLC_SN[4].mac I_received_BCN ETV
vector 13 HybridMeter_Net.PLC_SN[5].mac I_received_BCN ETV
vector 14 HybridMeter_Net.PLC_SN[0].mac I_sent_REG_REQ ETV
vector 15 HybridMeter_Net.PLC_SN[1].mac I_sent_REG_REQ ETV
vector 16 HybridMeter_Net.PLC_SN[2].mac I_sent_REG_REQ ETV
vector 17 HybridMeter_Net.PLC_SN[3].mac I_sent_REG_REQ ETV
vector 18 HybridMeter_Net.PLC_SN[4].mac I_sent_REG_REQ ETV
vector 19 HybridMeter_Net.PLC_SN[5].mac I_sent_REG_REQ ETV
vector 20 HybridMeter_Net.PLC_SN[5].mac PLCTxAttemptsBeforeTx ETV
vector 21 HybridMeter_Net.PLC_SN[5].mac PLCAccessDelay ETV
vector 22 HybridMeter_Net.PLC_SN[5].rflan.wlan.radio transmissionState:vector ETV
attr interpolationmode sample-hold
attr source transmissionStateChanged
attr title "Radio transmission state, vector"
vector 23 HybridMeter_Net.PLC_BN.rflan.wlan.radio receptionState:vector ETV
attr interpolationmode sample-hold
attr source receptionStateChanged
attr title "Radio reception state, vector"
vector 24 HybridMeter_Net.PLC_SN[0].mac PLCTxAttemptsBeforeTx ETV
vector 25 HybridMeter_Net.PLC_SN[0].mac PLCAccessDelay ETV
vector 26 HybridMeter_Net.PLC_SN[0].rflan.wlan.radio transmissionState:vector ETV
attr interpolationmode sample-hold
attr source transmissionStateChanged
attr title "Radio transmission state, vector"
vector 27 HybridMeter_Net.PLC_BN.mac PLCTxQueueLength ETV
vector 28 HybridMeter_Net.PLC_BN.mac PLCTxQueueLengthALV ETV
vector 29 HybridMeter_Net.PLC_BN.mac PLCTxAttemptsBeforeTx ETV
vector 30 HybridMeter_Net.PLC_SN[2].mac PLCTxAttemptsBeforeTx ETV
vector 31 HybridMeter_Net.PLC_SN[2].mac PLCAccessDelay ETV
vector 32 HybridMeter_Net.PLC_SN[2].rflan.wlan.radio transmissionState:vector ETV
attr interpolationmode sample-hold
attr source transmissionStateChanged
attr title "Radio transmission state, vector"
vector 33 HybridMeter_Net.PLC_BN.mac PLCNumRegNodes ETV
vector 34 HybridMeter_Net.PLC_BN.mac Registering_EUI48 ETV
vector 35 HybridMeter_Net.PLC_SN[1].mac PLCnumberOfmacSCPMaxTxAttempts ETV
vector 36 HybridMeter_Net.PLC_SN[3].mac PLCTxAttemptsBeforeTx ETV
vector 37 HybridMeter_Net.PLC_SN[3].mac PLCAccessDelay ETV
vector 38 HybridMeter_Net.PLC_SN[3].rflan.wlan.radio transmissionState:vector ETV
attr interpolationmode sample-hold
attr source transmissionStateChanged
attr title "Radio transmission state, vector"
vector 39 HybridMeter_Net.PLC_SN[4].mac PLCnumberOfmacSCPMaxTxAttempts ETV
vector 40 HybridMeter_Net.PLC_SN[1].mac PLCTxAttemptsBeforeTx ETV
vector 41 HybridMeter_Net.PLC_SN[1].mac PLCAccessDelay ETV
vector 42 HybridMeter_Net.PLC_SN[1].rflan.wlan.radio transmissionState:vector ETV
attr interpolationmode sample-hold
attr source transmissionStateChanged
attr title "Radio transmission state, vector"
vector 43 HybridMeter_Net.PLC_SN[4].mac PLCTxAttemptsBeforeTx ETV
vector 44 HybridMeter_Net.PLC_SN[4].mac PLCAccessDelay ETV
vector 45 HybridMeter_Net.PLC_SN[4].rflan.wlan.radio transmissionState:vector ETV
attr interpolationmode sample-hold
attr source transmissionStateChanged
attr title "Radio transmission state, vector"
vector 46 HybridMeter_Net.PLC_SN[0].mac PLCnumberOfmacSCPMaxTxAttempts ETV
vector 47 HybridMeter_Net.PLC_BN.mac PLC_Number_of_disconnections ETV
vector 48 HybridMeter_Net.PLC_BN.mac Unregistering_EUI48 ETV
vector 49 HybridMeter_Net.PLC_SN[3].mac PLC_Number_of_self_disconnections ETV
vector 50 HybridMeter_Net.PLC_BN.BNApp DLMSCOSEMAppTTRAllMeters ETV
vector 51 HybridMeter_Net.PLC_SN[0].SNApp app_roundtrip ETV
vector 52 HybridMeter_Net.PLC_BN.BNApp DLMSCOSEMAppMsgRoundtripLatency ETV
vector 53 HybridMeter_Net.PLC_BN.BNApp appMsg_bps ETV
vector 54 HybridMeter_Net.PLC_SN[1].SNApp app_roundtrip ETV
vector 55 HybridMeter_Net.PLC_SN[2].SNApp app_roundtrip ETV
vector 56 HybridMeter_Net.PLC_SN[4].SNApp app_roundtrip ETV
vector 57 HybridMeter_Net.PLC_SN[1].mac PLCTxQueueLength ETV
vector 58 HybridMeter_Net.PLC_SN[1].mac PLCTxQueueLengthALV ETV
vector 59 HybridMeter_Net.PLC_BN.mac PLCNumSwitches ETV
vector 60 HybridMeter_Net.PLC_BN.mac switch_nodes ETV
vector 61 HybridMeter_Net.PLC_SN[5].SNApp app_roundtrip ETV
vector 62 HybridMeter_Net.PLC_SN[3].SNApp app_roundtrip ETV
0	36	5	0
0	87	5.618241	0
0	214	5.658735393026	0.006444775975
0	360	5.725525442256	0.006060800956
0	443	5.752035009195	0.032570367895
0	561	5.830636142607	0.039882933274
0	601	5.857535084496	0.044342836418
0	810	6.043484131052	0.04285386994
0	850	6.056967899142	0.040513488837
0	959	6.1110413858	0.085140318051
0	1015	6.236482	0
0	1060	6.255599804191	0.229698736442
0	1104	6.854723	0
0	1150	7.42719499931	0.008483006114
0	1232	7.472964	0
0	1283	8.091205	0
0	1334	8.709446	0
0	1385	9.327687	0
0	1436	9.945928	0
0	1487	10.564169	0
0	1538	11.18241	0
0	1589	11.800651	0
0	1635	11.967330886437	0.00923492136
0	1717	12.418892	0
0	1768	13.037133	0
0	1819	13.655374	0
0	1870	14.273615	0
0	1921	14.891856	0
0	1972	15.510097	0
0	2023	16.128338	0
0	2074	16.746579	0
0	2125	17.36482	0
0	2176	17.983061	0
0	2227	18.601302	0
0	2278	19.219543	0
0	2329	19.837784	0
0	2380	20.456025	0
0	2428	20.821380325154	15.008188077076
0	2515	20.876307011423	0.008054545725
0	2699	20.98649603223	0.007988576485
0	2862	21.060646681183	15.034745613434
0	2943	21.074266	0
0	2992	21.090852962409	0.043003928075
0	3072	21.103668818791	0.055819784457
0	3111	21.113506158525	0.009874825664
0	3151	21.12345014685	0.019818813989
0	3276	21.692507	0
0	3322	22.133220027021	0.007223079888
0	3404	22.310748	0
0	3455	22.928989	0
0	3506	23.54723	0
0	3552	23.808108092323	0.00850013164
0	3634	24.165471	0
0	3680	24.364942240699	0.008989436083
0	3762	24.783712	0
0	3813	25.401953	0
0	3864	26.020194	0
0	3915	26.638435	0
0	3966	27.256676	0
0	4017	27.874917	0
0	4068	28.493158	0
0	4119	29.111399	0
0	4170	29.72964	0
0	4221	30.347881	0
0	4272	30.966122	0
0	4323	31.584363	0
0	4374	32.202604	0
0	4425	32.820845	0
0	4476	33.439086	0
0	4527	34.057327	0
0	4578	34.675568	0
0	4629	35.293809	0
0	4683	35.91205	0
0	4771	35.93671007905	0.007816073662
0	4811	35.945818735867	0.016924730479
0	4969	36.054886559184	0.020458236367
0	5008	36.06506887414	0.030640551323
0	5049	36.076676514584	0.033592438499
0	5088	36.086928142035	0.04384406595
0	5210	36.530291	0
0	5261	37.148532	0
0	5312	37.766773	0
0	5363	38.385014	0
0	5414	39.003255	0
0	5465	39.621496	0
0	5516	40.239737	0
0	5567	40.857978	0
0	5618	41.476219	0
0	5669	42.09446	0
0	5720	42.712701	0
0	5771	43.330942	0
0	5822	43.949183	0
0	5873	44.567424	0
0	5924	45.185665	0
0	5975	45.803906	0
0	6026	46.422147	0
0	6077	47.040388	0
0	6128	47.658629	0
0	6179	48.27687	0
0	6230	48.895111	0
0	6281	49.513352	0
0	6332	50.131593	0
0	6383	50.749834	0
0	6434	51.368075	0
0	6485	51.986316	0
0	6536	52.604557	0
0	6587	53.222798	0
0	6638	53.841039	0
0	6689	54.45928	0
0	6740	55.077521	0
0	6791	55.695762	0
0	6842	56.314003	0
0	6893	56.932244	0
0	6944	57.550485	0
0	6995	58.168726	0
0	7046	58.786967	0
0	7097	59.405208	0
0	7148	60.023449	0
0	7199	60.64169	0
0	7250	61.259931	0
0	7301	61.878172	0
0	7352	62.496413	0
0	7403	63.114654	0
0	7454	63.732895	0
0	7505	64.351136	0
0	7556	64.969377	0
0	7607	65.587618	0
0	7658	66.205859	0
0	7709	66.8241	0
0	7760	67.442341	0
0	7811	68.060582	0
0	7862	68.678823	0
0	7913	69.297064	0
0	7964	69.915305	0
0	8015	70.533546	0
0	8066	71.151787	0
0	8117	71.770028	0
0	8168	72.388269	0
0	8219	73.00651	0
0	8270	73.624751	0
0	8321	74.242992	0
0	8372	74.861233	0
0	8423	75.479474	0
0	8474	76.097715	0
0	8525	76.715956	0
0	8576	77.334197	0
0	8627	77.952438	0
0	8678	78.570679	0
0	8729	79.18892	0
0	8780	79.807161	0
0	8834	80.425402	0
0	8885	81.043643	0
0	8931	81.426367458664	0.007655465468
0	9013	81.661884	0
0	9064	82.280125	0
0	9115	82.898366	0
0	9166	83.516607	0
0	9217	84.134848	0
0	9268	84.753089	0
0	9319	85.37133	0
0	9365	85.968449463658	0.010353498581
0	9446	85.989571	0
0	9498	86.607812	0
0	9549	87.226053	0
0	9600	87.844294	0
0	9651	88.462535	0
0	9702	89.080776	0
0	9753	89.699017	0
0	9804	90.317258	0
0	9855	90.935499	0
0	9906	91.55374	0
0	9957	92.171981	0
0	10008	92.790222	0
0	10059	93.408463	0
0	10110	94.026704	0
0	10161	94.644945	0
0	10212	95.263186	0
0	10263	95.881427	0
0	10309	96.134453135289	0.008456188156
0	10391	96.499668	0
0	10442	97.117909	0
0	10493	97.73615	0
0	10539	97.809934450252	0.010326489569
0	10621	98.354391	0
0	10667	98.369897943493	0.013945138877
0	10749	98.972632	0
0	10800	99.590873	0
0	10851	100.209114	0
0	10902	100.827355	0
0	10953	101.445596	0
0	11004	102.063837	0
0	11055	102.682078	0
0	11106	103.300319	0
0	11157	103.91856	0
0	11208	104.536801	0
0	11259	105.155042	0
0	11310	105.773283	0
0	11361	106.391524	0
0	11412	107.009765	0
0	11463	107.628006	0
0	11514	108.246247	0
0	11565	108.864488	0
0	11616	109.482729	0
0	11667	110.10097	0
0	11718	110.719211	0
0	11769	111.337452	0
0	11820	111.955693	0
0	11871	112.573934	0
0	11922	113.192175	0
0	11973	113.810416	0
0	12024	114.428657	0
0	12075	115.046898	0
0	12126	115.665139	0
0	12177	116.28338	0
0	12228	116.901621	0
0	12279	117.519862	0
0	12330	118.138103	0
0	12381	118.756344	0
0	12432	119.374585	0
0	12483	119.992826	0
0	12534	120.611067	0
0	12585	121.229308	0
0	12636	121.847549	0
0	12687	122.46579	0
0	12738	123.084031	0
0	12789	123.702272	0
0	12840	124.320513	0
0	12891	124.938754	0
0	12942	125.556995	0
0	12993	126.175236	0
0	13044	126.793477	0
0	13095	127.411718	0
0	13146	128.029959	0
0	13197	128.6482	0
0	13248	129.266441	0
0	13299	129.884682	0
0	13350	130.502923	0
0	13401	131.121164	0
0	13452	131.739405	0
0	13503	132.357646	0
0	13554	132.975887	0
0	13605	133.594128	0
0	13656	134.212369	0
0	13707	134.83061	0
0	13758	135.448851	0
0	13809	136.067092	0
0	13860	136.685333	0
0	13911	137.303574	0
0	13962	137.921815	0
0	14013	138.540056	0
0	14064	139.158297	0
0	14115	139.776538	0
0	14168	140.394779	0
0	14219	141.01302	0
0	14270	141.631261	0
0	14321	142.249502	0
0	14372	142.867743	0
0	14423	143.485984	0
0	14474	144.104225	0
0	14525	144.722466	0
0	14576	145.340707	0
0	14627	145.958948	0
0	14678	146.577189	0
0	14729	147.19543	0
0	14780	147.813671	0
0	14831	148.431912	0
0	14882	149.050153	0
0	14933	149.668394	0
0	14984	150.286635	0
0	15035	150.904876	0
0	15086	151.523117	0
0	15137	152.141358	0
0	15188	152.759599	0
0	15239	153.37784	0
0	15290	153.996081	0
0	15341	154.614322	0
0	15392	155.232563	0
0	15438	155.427839554544	0.009127561348
0	15520	155.850804	0
0	15571	156.469045	0
0	15622	157.087286	0
0	15673	157.705527	0
0	15724	158.323768	0
0	15775	158.942009	0
0	15826	159.56025	0
0	15872	159.964747581707	0.00665161663
0	15954	160.178491	0
0	16005	160.796732	0
0	16056	161.414973	0
0	16107	162.033214	0
0	16158	162.651455	0
0	16209	163.269696	0
0	16260	163.887937	0
0	16311	164.506178	0
0	16362	165.124419	0
0	16413	165.74266	0
0	16464	166.360901	0
0	16515	166.979142	0
0	16566	167.597383	0
0	16617	168.215624	0
0	16668	168.833865	0
0	16719	169.452106	0
0	16770	170.070347	0
0	16816	170.135794819365	0.009797872232
0	17105	170.688588	0
0	17156	171.306829	0
0	17202	171.806599115639	0.006991154956
0	17284	171.92507	0
0	17330	172.362639903761	0.006687099145
0	17412	172.543311	0
0	17463	173.161552	0
0	17514	173.779793	0
0	17565	174.398034	0
0	17616	175.016275	0
0	17672	175.634516	0
0	17723	176.252757	0
0	17774	176.870998	0
0	17825	177.489239	0
0	17876	178.10748	0
0	17927	178.725721	0
0	17978	179.343962	0
0	18029	179.962203	0
0	18080	180.580444	0
0	18131	181.198685	0
0	18182	181.816926	0
0	18233	182.435167	0
0	18284	183.053408	0
0	18335	183.671649	0
0	18386	184.28989	0
0	18437	184.908131	0
0	18488	185.526372	0
0	18539	186.144613	0
0	18590	186.762854	0
0	18641	187.381095	0
0	18692	187.999336	0
0	18743	188.617577	0
0	18794	189.235818	0
0	18845	189.854059	0
0	18896	190.4723	0
0	18947	191.090541	0
0	18998	191.708782	0
0	19049	192.327023	0
0	19100	192.945264	0
0	19151	193.563505	0
0	19202	194.181746	0
0	19253	194.799987	0
0	19304	195.418228	0
0	19355	196.036469	0
0	19406	196.65471	0
0	19457	197.272951	0
0	19508	197.891192	0
0	19559	198.509433	0
0	19610	199.127674	0
0	19661	199.745915	0
0	19712	200.364156	0
0	19763	200.982397	0
0	20038	201.600638	0
0	20089	202.218879	0
0	20140	202.83712	0
0	20191	203.455361	0
0	20242	204.073602	0
0	20293	204.691843	0
0	20344	205.310084	0
0	20395	205.928325	0
0	20451	206.546566	0
0	20502	207.164807	0
0	20553	207.783048	0
0	20604	208.401289	0
0	20655	209.01953	0
0	20706	209.637771	0
0	20757	210.256012	0
0	20808	210.874253	0
0	20859	211.492494	0
0	20910	212.110735	0
0	20961	212.728976	0
0	21012	213.347217	0
0	21063	213.965458	0
0	21114	214.583699	0
0	21165	215.20194	0
0	21216	215.820181	0
0	21267	216.438422	0
0	21318	217.056663	0
0	21369	217.674904	0
0	21420	218.293145	0
0	21471	218.911386	0
0	21522	219.529627	0
0	21573	220.147868	0
0	21624	220.766109	0
0	21675	221.38435	0
0	21726	222.002591	0
0	21777	222.620832	0
0	21828	223.239073	0
0	21879	223.857314	0
0	21930	224.475555	0
0	21981	225.093796	0
0	22032	225.712037	0
0	22083	226.330278	0
0	22134	226.948519	0
0	22185	227.56676	0
0	22236	228.185001	0
0	22287	228.803242	0
0	22339	229.421483	0
0	22384	229.440466872439	0.021754879243
0	22466	230.039724	0
0	22517	230.657965	0
0	22568	231.276206	0
0	22619	231.894447	0
0	22871	232.512688	0
0	22922	233.130929	0
0	22973	233.74917	0
0	23019	233.964130954838	0.006034989761
0	23101	234.367411	0
0	23152	234.985652	0
0	23203	235.603893	0
0	23254	236.222134	0
0	23305	236.840375	0
0	23361	237.458616	0
0	23412	238.076857	0
0	23463	238.695098	0
0	23514	239.313339	0
0	23565	239.93158	0
0	23616	240.549821	0
0	23667	241.168062	0
0	23718	241.786303	0
0	23769	242.404544	0
0	23820	243.022785	0
0	23871	243.641026	0
0	23917	244.132309598645	0.006312651512
0	23999	244.259267	0
0	24050	244.877508	0
0	24101	245.495749	0
0	24147	245.807026258857	0.007418298174
0	24229	246.11399	0
0	24275	246.365711655562	0.009758850946
0	24357	246.732231	0
0	24408	247.350472	0
0	24459	247.968713	0
0	24510	248.586954	0
0	24561	249.205195	0
0	24612	249.823436	0
0	24663	250.441677	0
0	24714	251.059918	0
0	24765	251.678159	0
0	24816	252.2964	0
0	24867	252.914641	0
0	24918	253.532882	0
0	24969	254.151123	0
0	25020	254.769364	0
0	25071	255.387605	0
0	25122	256.005846	0
0	25173	256.624087	0
0	25224	257.242328	0
0	25275	257.860569	0
0	25326	258.47881	0
0	25377	259.097051	0
0	25428	259.715292	0
0	25479	260.333533	0
0	25530	260.951774	0
0	25581	261.570015	0
0	25632	262.188256	0
0	25886	262.806497	0
0	25937	263.424738	0
0	25988	264.042979	0
0	26039	264.66122	0
0	26090	265.279461	0
0	26141	265.897702	0
0	26192	266.515943	0
0	26243	267.134184	0
0	26299	267.752425	0
0	26350	268.370666	0
0	26401	268.988907	0
0	26452	269.607148	0
0	26503	270.225389	0
0	26554	270.84363	0
0	26605	271.461871	0
0	26656	272.080112	0
0	26707	272.698353	0
0	26758	273.316594	0
0	26809	273.934835	0
0	26860	274.553076	0
0	26911	275.171317	0
0	26962	275.789558	0
0	27013	276.407799	0
0	27064	277.02604	0
0	27115	277.644281	0
0	27166	278.262522	0
0	27217	278.880763	0
0	27268	279.499004	0
0	27319	280.117245	0
0	27370	280.735486	0
0	27421	281.353727	0
0	27472	281.971968	0
0	27523	282.590209	0
0	27574	283.20845	0
0	27625	283.826691	0
0	27676	284.444932	0
0	27727	285.063173	0
0	27778	285.681414	0
0	27829	286.299655	0
0	27880	286.917896	0
0	27931	287.536137	0
0	27982	288.154378	0
0	28033	288.772619	0
0	28084	289.39086	0
0	28135	290.009101	0
0	28186	290.627342	0
0	28237	291.245583	0
0	28288	291.863824	0
0	28339	292.482065	0
0	28617	293.100306	0
0	28668	293.718547	0
0	28719	294.336788	0
0	28770	294.955029	0
0	28821	295.57327	0
0	28872	296.191511	0
0	28923	296.809752	0
0	28974	297.427993	0
0	29030	298.046234	0
0	29081	298.664475	0
0	29132	299.282716	0
0	29183	299.900957	0
0	29231	300.007460361536	0.007460361536
0	29315	300.079718111398	0.047365634944
0	29357	300.093832021005	0.061479544551
0	29483	300.519198	0
0	29534	301.137439	0
0	29585	301.75568	0
0	29636	302.373921	0
0	29687	302.992162	0
0	29733	303.428978792007	0.010266798811
0	29815	303.610403	0
0	29866	304.228644	0
0	29917	304.846885	0
0	30014	305.215639555733	0.024509219508
0	30059	305.465126	0
0	30110	306.083367	0
0	30161	306.701608	0
0	30212	307.319849	0
0	30263	307.93809	0
0	30309	307.964568827642	0.006472862565
0	30391	308.556331	0
0	30442	309.174572	0
0	30493	309.792813	0
0	30545	310.231329248662	0.040198912437
0	30635	310.411054	0
0	30686	311.029295	0
0	30737	311.647536	0
0	30788	312.265777	0
0	30839	312.884018	0
0	30890	313.502259	0
0	30941	314.1205	0
0	30992	314.738741	0
0	31091	315.356982	0
0	31140	315.390034988269	0.052675998175
0	31185	315.975223	0
0	31236	316.593464	0
0	31287	317.211705	0
0	31338	317.829946	0
0	31384	318.135356467115	0.009359519982
0	31466	318.448187	0
0	31517	319.066428	0
0	31568	319.684669	0
0	31614	319.806186483816	0.006578523133
0	31696	320.30291	0
0	31744	320.345266879963	0.007907889869
0	31828	320.378189490301	0.022236685685
0	31908	320.418035610635	0.047323345145
0	31948	320.430274842616	0.059562577126
0	32074	320.921151	0
0	32125	321.539392	0
0	32176	322.157633	0
0	32227	322.775874	0
0	32505	323.394115	0
0	32556	324.012356	0
0	32607	324.630597	0
0	32658	325.248838	0
0	32755	325.559034019501	0.047107139158
0	32800	325.867079	0
0	32851	326.48532	0
0	32902	327.103561	0
0	32953	327.721802	0
0	33009	328.340043	0
0	33060	328.958284	0
0	33111	329.576525	0
0	33162	330.194766	0
0	33214	330.584780592825	0.072853712482
0	33304	330.813007	0
0	33355	331.431248	0
0	33406	332.049489	0
0	33457	332.66773	0
0	33508	333.285971	0
0	33559	333.904212	0
0	33610	334.522453	0
0	33661	335.140694	0
0	33758	335.679389301049	0.02605681566
0	33803	335.758935	0
0	33854	336.377176	0
0	33905	336.995417	0
0	33956	337.613658	0
0	34007	338.231899	0
0	34058	338.85014	0
0	34109	339.468381	0
0	34160	340.086622	0
0	34208	340.661583379671	0.008250894282
0	34294	340.704863	0
0	34343	340.773802043546	0.085104472154
0	34384	340.785390914039	0.096693342647
0	34511	341.323104	0
0	34562	341.941345	0
0	34613	342.559586	0
0	34664	343.177827	0
0	34715	343.796068	0
0	34766	344.414309	0
0	34817	345.03255	0
0	34868	345.650791	0
0	34965	345.860770732804	0.030219949863
0	35010	346.269032	0
0	35061	346.887273	0
0	35112	347.505514	0
0	35163	348.123755	0
0	35214	348.741996	0
0	35265	349.360237	0
0	35316	349.978478	0
0	35367	350.596719	0
0	35419	350.857597539416	0.027046756475
0	35509	351.21496	0
0	35560	351.833201	0
0	35611	352.451442	0
0	35662	353.069683	0
0	35939	353.687924	0
0	35990	354.306165	0
0	36041	354.924406	0
0	36092	355.542647	0
0	36189	356.030988801523	0.069016954708
0	36234	356.160888	0
0	36285	356.779129	0
0	36336	357.39737	0
0	36387	358.015611	0
0	36443	358.633852	0
0	36494	359.252093	0
0	36545	359.870334	0
0	36596	360.488575	0
0	36644	360.968654460835	0.00668261402
0	36728	361.02893624366	0.031966872606
0	36769	361.043787591546	0.046818220492
0	36895	361.106816	0
0	36946	361.725057	0
0	36997	362.343298	0
0	37048	362.961539	0
0	37099	363.57978	0
0	37150	364.198021	0
0	37201	364.816262	0
0	37252	365.434503	0
0	37306	366.052744	0
0	37400	366.159980710515	0.039081228428
0	37445	366.670985	0
0	37496	367.289226	0
0	37547	367.907467	0
0	37598	368.525708	0
0	37649	369.143949	0
0	37700	369.76219	0
0	37751	370.380431	0
0	37797	370.432922476516	0.009823691739
0	37872	370.454300354791	0.006417198292
0	37955	370.998672	0
0	38112	371.079533040872	0.008372290015
0	38296	371.338643860745	0.217744378658
0	38462	371.616913	0
0	38549	372.235154	0
0	38636	372.853395	0
0	38723	373.471636	0
0	38810	374.089877	0
0	38897	374.708118	0
0	38979	374.90570077235	0.010215074749
0	39137	375.326359	0
0	39224	375.9446	0
0	39357	376.511620118527	0.083051263738
0	39402	376.562841	0
0	39489	377.181082	0
0	39571	377.428540824421	0.009828831225
0	39653	377.799323	0
0	39740	378.417564	0
0	39827	379.035805	0
0	39914	379.654046	0
0	40001	380.272287	0
0	40088	380.890528	0
0	40172	381.435696471027	0.007127616238
0	40258	381.508769	0
0	40343	381.582176540679	0.121939249176
0	40384	381.596977979721	0.136740688218
0	40504	381.964917955986	0.006821990909
0	40586	382.12701	0
0	40673	382.745251	0
0	40760	383.363492	0
0	40847	383.981733	0
0	40934	384.599974	0
0	41021	385.218215	0
0	41108	385.836456	0
0	41196	386.454697	0
0	41485	386.73971587973	0.049583913453
0	41530	387.072938	0
0	41617	387.691179	0
0	41704	388.30942	0
0	41791	388.927661	0
0	41878	389.545902	0
0	41965	390.164143	0
0	42052	390.782384	0
0	42139	391.400625	0
0	42227	391.770268985694	0.080137019417
0	42317	392.018866	0
0	42399	392.135818265812	0.009821318679
0	42481	392.637107	0
0	42568	393.255348	0
0	42650	393.808284758769	0.008676798086
0	42732	393.873589	0
0	42814	394.363342185628	0.007389381012
0	42896	394.49183	0
0	42983	395.110071	0
0	43070	395.728312	0
0	43157	396.346553	0
0	43290	396.903836944516	0.025257849977
0	43335	396.964794	0
0	43422	397.583035	0
0	43509	398.201276	0
0	43596	398.819517	0
0	43683	399.437758	0
0	43770	400.055999	0
0	43857	400.67424	0
0	43944	401.292481	0
0	44034	401.910722	0
0	44119	401.954020679862	0.075441585323
0	44209	402.528963	0
0	44296	403.147204	0
0	44383	403.765445	0
0	44470	404.383686	0
0	44557	405.001927	0
0	44644	405.620168	0
0	44731	406.238409	0
0	44818	406.85665	0
0	44951	407.100736809062	0.041620731094
0	44996	407.474891	0
0	45083	408.093132	0
0	45170	408.711373	0
0	45257	409.329614	0
0	45344	409.947855	0
0	45431	410.566096	0
0	45518	411.184337	0
0	45605	411.802578	0
0	45693	412.132260624393	0.073144546425
0	45783	412.420819	0
0	45870	413.03906	0
0	45957	413.657301	0
0	46044	414.275542	0
0	46131	414.893783	0
0	46218	415.512024	0
0	46305	416.130265	0
0	46392	416.748506	0
0	46525	417.221177407883	0.03169928287
0	46570	417.366747	0
0	46657	417.984988	0
0	46739	418.475000568676	0.008725941327
0	46821	418.603229	0
0	46908	419.22147	0
0	46995	419.839711	0
0	47082	420.457952	0
0	47169	421.076193	0
0	47256	421.694434	0
0	47344	422.237839366206	0.048361241193
0	47391	422.312675	0
0	47521	422.930916	0
0	47608	423.549157	0
0	47695	424.167398	0
0	47782	424.785639	0
0	47869	425.40388	0
0	47956	426.022121	0
0	48043	426.640362	0
0	48133	427.258603	0
0	48263	427.454435576235	0.069007356875
0	48308	427.876844	0
0	48395	428.495085	0
0	48482	429.113326	0
0	48569	429.731567	0
0	48656	430.349808	0
0	48743	430.968049	0
0	48830	431.58629	0
0	48917	432.204531	0
0	49005	432.453198041419	0.067769822059
0	49095	432.822772	0
0	49182	433.441013	0
0	49269	434.059254	0
0	49356	434.677495	0
0	49443	435.295736	0
0	49530	435.913977	0
0	49617	436.532218	0
0	49704	437.150459	0
0	49837	437.595605282157	0.053061766517
0	49882	437.7687	0
0	49969	438.386941	0
0	50056	439.005182	0
0	50143	439.623423	0
0	50230	440.241664	0
0	50317	440.859905	0
0	50404	441.478146	0
0	50491	442.096387	0
0	50579	442.630246539167	0.087703023527
0	50669	442.714628	0
0	50751	443.140724054025	0.00778276001
0	50833	443.332869	0
0	50920	443.95111	0
0	51007	444.569351	0
0	51094	445.187592	0
0	51181	445.805833	0
0	51268	446.424074	0
0	51355	447.042315	0
0	51445	447.660556	0
0	51575	447.816680333844	0.055461199455
0	51620	448.278797	0
0	51708	448.897038	0
0	51789	448.923061955658	0.027576258057
0	51947	449.515279	0
0	52034	450.13352	0
0	52121	450.751761	0
0	52208	451.370002	0
0	52290	451.42734505114	0.008633057944
0	52372	451.988243	0
0	52459	452.606484	0
0	52547	452.78094129964	0.019722165251
0	52637	453.224725	0
0	52724	453.842966	0
0	52811	454.461207	0
0	52898	455.079448	0
0	52985	455.697689	0
0	53067	455.968115792101	0.010019827024
0	53149	456.31593	0
0	53236	456.934171	0
0	53323	457.552412	0
0	53456	457.876981234981	0.031011519015
0	53501	458.170653	0
0	53588	458.788894	0
0	53675	459.407135	0
0	53762	460.025376	0
0	53849	460.643617	0
0	53936	461.261858	0
0	54023	461.880099	0
0	54110	462.49834	0
0	54194	462.85275889911	0.006789183144
0	54354	462.996554140274	0.081894072616
0	54391	463.008614130871	0.093954063213
0	54519	463.116581	0
0	54691	463.734822	0
0	54778	464.353063	0
0	54865	464.971304	0
0	54952	465.589545	0
0	55034	466.132114989335	0.006118042202
0	55116	466.207786	0
0	55203	466.826027	0
0	55290	467.444268	0
0	55372	467.809723297709	0.010115337028
0	55454	468.062509	0
0	55629	468.259803078233	0.024885762405
0	55711	468.364252299078	0.008299494462
0	55793	468.68075	0
0	55880	469.298991	0
0	55967	469.917232	0
0	56054	470.535473	0
0	56141	471.153714	0
0	56228	471.771955	0
0	56315	472.390196	0
0	56402	473.008437	0
0	56490	473.282301496207	0.047384180379
0	56664	473.626678	0
0	56751	474.244919	0
0	56838	474.86316	0
0	56925	475.481401	0
0	57012	476.099642	0
0	57099	476.717883	0
0	57186	477.336124	0
0	57273	477.954365	0
0	57448	478.515916441001	0.020111863623
0	57535	478.572606	0
0	57622	479.190847	0
0	57709	479.809088	0
0	57796	480.427329	0
0	57883	481.04557	0
0	57970	481.663811	0
0	58057	482.282052	0
0	58144	482.900293	0
0	58232	483.518534	0
0	58319	484.136775	0
0	58406	484.755016	0
0	58493	485.373257	0
0	58580	485.991498	0
0	58667	486.609739	0
0	58754	487.22798	0
0	58841	487.846221	0
0	58928	488.464462	0
0	59015	489.082703	0
0	59102	489.700944	0
0	59189	490.319185	0
0	59276	490.937426	0
0	59363	491.555667	0
0	59450	492.173908	0
0	59532	492.476599938339	0.010325310992
0	59614	492.792149	0
0	59701	493.41039	0
0	59789	493.57089173654	0.075087159162
0	59879	494.028631	0
0	59966	494.646872	0
0	60053	495.265113	0
0	60140	495.883354	0
0	60227	496.501595	0
0	60314	497.119836	0
0	60401	497.738077	0
0	60488	498.356318	0
0	60621	498.655250549041	0.031944514534
0	60666	498.974559	0
0	60753	499.5928	0
0	60840	500.211041	0
0	60927	500.829282	0
0	61014	501.447523	0
0	61101	502.065764	0
0	61188	502.684005	0
0	61275	503.302246	0
0	61363	503.642140917618	0.018834883111
0	61453	503.920487	0
0	61540	504.538728	0
0	61627	505.156969	0
0	61714	505.77521	0
0	61801	506.393451	0
0	61888	507.011692	0
0	61975	507.629933	0
0	62062	508.248174	0
0	62195	508.809770250017	0.068286591914
0	62240	508.866415	0
0	62327	509.484656	0
0	62414	510.102897	0
0	62501	510.721138	0
0	62588	511.339379	0
0	62675	511.95762	0
0	62762	512.575861	0
0	62849	513.194102	0
0	62939	513.812343	0
0	63024	513.882603090003	0.1411194319
0	63114	514.430584	0
0	63201	515.048825	0
0	63288	515.667066	0
0	63375	516.285307	0
0	63462	516.903548	0
0	63544	517.140458238447	0.007516944434
0	63626	517.521789	0
0	63713	518.14003	0
0	63800	518.758271	0
0	63933	519.053451632302	0.077841661541
0	63978	519.376512	0
0	64065	519.994753	0
0	64152	520.612994	0
0	64239	521.231235	0
0	64326	521.849476	0
0	64413	522.467717	0
0	64495	522.90471642655	0.009230728949
0	64653	523.085958	0
0	64740	523.704199	0
0	64828	524.019659477037	0.044049506276
0	64918	524.32244	0
0	65005	524.940681	0
0	65087	525.426208307451	0.007496314255
0	65169	525.558922	0
0	65256	526.177163	0
0	65343	526.795404	0
0	65430	527.413645	0
0	65517	528.031886	0
0	65604	528.650127	0
0	65737	529.162756639424	0.083230740092
0	65782	529.268368	0
0	65869	529.886609	0
0	65951	529.967264182246	0.009168217169
0	66033	530.50485	0
0	66120	531.123091	0
0	66207	531.741332	0
0	66294	532.359573	0
0	66381	532.977814	0
0	66468	533.596055	0
0	66556	534.143237963782	0.06371206445
0	66646	534.214296	0
0	66733	534.832537	0
0	66820	535.450778	0
0	66907	536.069019	0
0	66994	536.68726	0
0	67081	537.305501	0
0	67168	537.923742	0
0	67255	538.541983	0
0	67345	539.160224	0
0	67475	539.304754705409	0.069518516254
0	67520	539.778465	0
0	67602	540.13335371381	0.007356766677
0	67684	540.396706	0
0	67771	541.014947	0
0	67858	541.633188	0
0	67940	541.808698698979	0.0090907383
0	68022	542.251429	0
0	68104	542.365856451651	0.009903647035
0	68186	542.86967	0
0	68273	543.487911	0
0	68360	544.106152	0
0	68448	544.289235035731	0.053998846576
0	68538	544.724393	0
0	68625	545.342634	0
0	68712	545.960875	0
0	68799	546.579116	0
0	68886	547.197357	0
0	68973	547.815598	0
0	69060	548.433839	0
0	69147	549.05208	0
0	69280	549.399528733037	0.041456968617
0	69325	549.670321	0
0	69412	550.288562	0
0	69499	550.906803	0
0	69586	551.525044	0
0	69673	552.143285	0
0	69760	552.761526	0
0	69847	553.379767	0
0	69934	553.998008	0
0	70022	554.377330135177	0.019258370757
0	70112	554.616249	0
0	70199	555.23449	0
0	70286	555.852731	0
0	70373	556.470972	0
0	70460	557.089213	0
0	70547	557.707454	0
0	70634	558.325695	0
0	70721	558.943936	0
0	70854	559.551399885465	0.068387105563
0	70899	559.562177	0
0	70986	560.180418	0
0	71073	560.798659	0
0	71160	561.4169	0
0	71247	562.035141	0
0	71334	562.653382	0
0	71421	563.271623	0
0	71508	563.889864	0
0	71598	564.508105	0
0	71683	564.558569428482	0.07555664858
0	71773	565.126346	0
0	71860	565.744587	0
0	71947	566.362828	0
0	72029	566.476428865478	0.010154238133
0	72111	566.981069	0
0	72198	567.59931	0
0	72285	568.217551	0
0	72372	568.835792	0
0	72459	569.454033	0
0	72592	569.673224562144	0.032308258975
0	72637	570.072274	0
0	72724	570.690515	0
0	72811	571.308756	0
0	72898	571.926997	0
0	72985	572.545238	0
0	73072	573.163479	0
0	73159	573.78172	0
0	73246	574.399961	0
0	73334	574.672997957274	0.032081654105
0	73424	575.018202	0
0	73511	575.636443	0
0	73598	576.254684	0
0	73685	576.872925	0
0	73772	577.491166	0
0	73859	578.109407	0
0	73946	578.727648	0
0	74033	579.345889	0
0	74166	579.806494043278	0.022352256289
0	74211	579.96413	0
0	74298	580.582371	0
0	74385	581.200612	0
0	74472	581.818853	0
0	74559	582.437094	0
0	74646	583.055335	0
0	74733	583.673576	0
0	74820	584.291817	0
0	74908	584.824310825678	0.040169038689
0	74998	584.910058	0
0	75085	585.528299	0
0	75172	586.14654	0
0	75259	586.764781	0
0	75346	587.383022	0
0	75433	588.001263	0
0	75520	588.619504	0
0	75607	589.237745	0
0	75697	589.855986	0
0	75827	590.018858610543	0.0370955603
0	75872	590.474227	0
0	75959	591.092468	0
0	76041	591.142617697608	0.009676403597
0	76123	591.710709	0
0	76210	592.32895	0
0	76297	592.947191	0
0	76384	593.565432	0
0	76471	594.183673	0
0	76558	594.801914	0
0	76646	595.048301249236	0.066538198993
0	76820	595.420155	0
0	76907	596.038396	0
0	76994	596.656637	0
0	77076	596.901641657483	0.006155959882
0	77234	597.274878	0
0	77321	597.893119	0
0	77408	598.51136	0
0	77495	599.129601	0
0	77577	599.426867329438	0.008155336242
0	77659	599.747842	0
0	77834	600.25679237901	0.041658309808
0	77921	600.366083	0
0	78008	600.984324	0
0	78095	601.602565	0
0	78182	602.220806	0
0	78269	602.839047	0
0	78356	603.457288	0
0	78438	603.964282181733	0.006186216656
0	78520	604.075529	0
0	78607	604.69377	0
0	78695	605.295650675678	0.080516606476
0	78739	605.312011	0
0	78956	605.930252	0
0	79043	606.548493	0
0	79130	607.166734	0
0	79217	607.784975	0
0	79304	608.403216	0
0	79391	609.021457	0
0	79478	609.639698	0
0	79565	610.257939	0
0	79740	610.570450340634	0.029600661857
0	79827	610.87618	0
0	79914	611.494421	0
0	80001	612.112662	0
0	80088	612.730903	0
0	80175	613.349144	0
0	80262	613.967385	0
0	80344	614.133779996798	0.007783049665
0	80426	614.585626	0
0	80513	615.203867	0
0	80596	615.809650006682	0.010042046005
0	80640	615.822108	0
0	80760	616.365875547993	0.009922743377
0	80842	616.440349	0
0	80929	617.05859	0
0	81016	617.676831	0
0	81103	618.295072	0
0	81190	618.913313	0
0	81277	619.531554	0
0	81364	620.149795	0
0	81451	620.768036	0
0	81538	621.386277	0
0	81625	622.004518	0
0	81712	622.622759	0
0	81799	623.241	0
0	81886	623.859241	0
0	81973	624.477482	0
0	82060	625.095723	0
0	82148	625.592898966513	0.052049287736
0	82238	625.713964	0
0	82325	626.332205	0
0	82412	626.950446	0
0	82499	627.568687	0
0	82586	628.186928	0
0	82673	628.805169	0
0	82760	629.42341	0
0	82847	630.041651	0
0	82937	630.659892	0
0	83067	630.836997915966	0.081802607605
0	83112	631.278133	0
0	83199	631.896374	0
0	83286	632.514615	0
0	83373	633.132856	0
0	83460	633.751097	0
0	83547	634.369338	0
0	83634	634.987579	0
0	83721	635.60582	0
0	83809	635.779311208386	0.024115900025
0	83899	636.224061	0
0	83986	636.842302	0
0	84073	637.460543	0
0	84160	638.078784	0
0	84247	638.697025	0
0	84334	639.315266	0
0	84421	639.933507	0
0	84503	640.472444779024	0.006170151681
0	84585	640.551748	0
0	84718	640.921419335636	0.082091900775
0	84763	641.169989	0
0	84850	641.78823	0
0	84937	642.406471	0
0	85024	643.024712	0
0	85111	643.642953	0
0	85198	644.261194	0
0	85285	644.879435	0
0	85372	645.497676	0
0	85460	645.858674667799	0.019347232938
0	85550	646.115917	0
0	85637	646.734158	0
0	85724	647.352399	0
0	85811	647.97064	0
0	85898	648.588881	0
0	85985	649.207122	0
0	86072	649.825363	0
0	86159	650.443604	0
0	86292	650.982440418364	0.047152605219
0	86337	651.061845	0
0	86424	651.680086	0
0	86511	652.298327	0
0	86598	652.916568	0
0	86685	653.534809	0
0	86772	654.15305	0
0	86859	654.771291	0
0	86946	655.389532	0
0	87034	655.978171059684	0.042883246539
0	87081	656.007773	0
0	87211	656.626014	0
0	87298	657.244255	0
0	87385	657.862496	0
0	87472	658.480737	0
0	87559	659.098978	0
0	87646	659.717219	0
0	87733	660.33546	0
0	87820	660.953701	0
0	87953	661.079261271662	0.054269380071
0	87998	661.571942	0
0	88085	662.190183	0
0	88172	662.808424	0
0	88259	663.426665	0
0	88346	664.044906	0
0	88433	664.663147	0
0	88515	665.140280323085	0.007339029076
0	88597	665.281388	0
0	88684	665.899629	0
0	88772	666.104873354341	0.07988146275
0	88862	666.51787	0
0	88949	667.136111	0
0	89036	667.754352	0
0	89123	668.372593	0
0	89210	668.990834	0
0	89297	669.609075	0
0	89384	670.227316	0
0	89471	670.845557	0
0	89553	670.905298209767	0.009812512166
0	89757	671.248748671309	0.060132042058
0	89802	671.463798	0
0	89889	672.082039	0
0	89976	672.70028	0
0	90063	673.318521	0
0	90145	673.42813592874	0.009423935544
0	90227	673.936762	0
0	90314	674.555003	0
0	90401	675.173244	0
0	90488	675.791485	0
0	90576	676.244814503311	0.05619787406
0	90666	676.409726	0
0	90753	677.027967	0
0	90840	677.646208	0
0	90922	677.966289666228	0.008193701151
0	91004	678.264449	0
0	91091	678.88269	0
0	91178	679.500931	0
0	91265	680.119172	0
0	91352	680.737413	0
0	91487	681.355654	0
0	91572	681.42915506041	0.110751663168
0	91617	681.973895	0
0	91704	682.592136	0
0	91791	683.210377	0
0	91878	683.828618	0
0	91965	684.446859	0
0	92052	685.0651	0
0	92139	685.683341	0
0	92226	686.301582	0
0	92314	686.387533668239	0.069130270997
0	92404	686.919823	0
0	92491	687.538064	0
0	92573	688.134517505918	0.008520558785
0	92654	688.156305	0
0	92742	688.774546	0
0	92829	689.392787	0
0	92911	689.80911441175	0.009506451075
0	92993	690.011028	0
0	93075	690.366024021341	0.010071216725
0	93157	690.629269	0
0	93244	691.24751	0
0	93377	691.467339607827	0.027920381827
0	93422	691.865751	0
0	93509	692.483992	0
0	93596	693.102233	0
0	93683	693.720474	0
0	93770	694.338715	0
0	93857	694.956956	0
0	93944	695.575197	0
0	94031	696.193438	0
0	94119	696.483320793175	0.043901567175
0	94209	696.811679	0
0	94296	697.42992	0
0	94383	698.048161	0
0	94470	698.666402	0
0	94557	699.284643	0
0	94644	699.902884	0
0	94731	700.521125	0
0	94818	701.139366	0
0	94951	701.627067337397	0.04703970422
0	94996	701.757607	0
0	95083	702.375848	0
0	95170	702.994089	0
0	95257	703.61233	0
0	95344	704.230571	0
0	95431	704.848812	0
0	95518	705.467053	0
0	95605	706.085294	0
0	95693	706.654959913009	0.074932279832
0	95740	706.703535	0
0	95870	707.321776	0
0	95957	707.940017	0
0	96044	708.558258	0
0	96131	709.176499	0
0	96218	709.79474	0
0	96305	710.412981	0
0	96392	711.031222	0
0	96479	711.649463	0
0	96612	711.804196658623	0.068914841139
0	96657	712.267704	0
0	96744	712.885945	0
0	96831	713.504186	0
0	96918	714.122427	0
0	97000	714.473595189472	0.007320562131
0	97082	714.740668	0
0	97169	715.358909	0
0	97256	715.97715	0
0	97343	716.595391	0
0	97431	716.77149878885	0.036216971366
0	97521	717.213632	0
0	97608	717.831873	0
0	97695	718.450114	0
0	97782	719.068355	0
0	97869	719.686596	0
0	97956	720.304837	0
0	98043	720.923078	0
0	98130	721.541319	0
0	98263	721.87864088597	0.039204021575
0	98308	722.15956	0
0	98395	722.777801	0
0	98482	723.396042	0
0	98569	724.014283	0
0	98656	724.632524	0
0	98743	725.250765	0
0	98830	725.869006	0
0	98917	726.487247	0
0	99005	726.868398047914	0.028961183519
0	99179	727.105488	0
0	99266	727.723729	0
0	99353	728.34197	0
0	99440	728.960211	0
0	99527	729.578452	0
0	99614	730.196693	0
0	99701	730.814934	0
0	99788	731.433175	0
0	99920	732.051416	0
0	100050	732.208208715114	0.038777030528
0	100137	732.669657	0
0	100224	733.287898	0
0	100311	733.906139	0
0	100398	734.52438	0
0	100485	735.142621	0
0	100572	735.760862	0
0	100659	736.379103	0
0	100746	736.997344	0
0	100834	737.249266935147	0.079835250561
0	101008	737.615585	0
0	101095	738.233826	0
0	101182	738.852067	0
0	101264	739.141214213196	0.008272919189
0	101346	739.470308	0
0	101433	740.088549	0
0	101520	740.70679	0
0	101607	741.325031	0
0	101694	741.943272	0
0	101869	742.530635635846	0.057590300171
0	101955	742.561513	0
0	102043	743.179754	0
0	102130	743.797995	0
0	102217	744.416236	0
0	102299	744.904134459024	0.008648761423
0	102457	745.034477	0
0	102544	745.652718	0
0	102631	746.270959	0
0	102718	746.8892	0
0	102800	747.425332960875	0.006620967679
0	102883	747.507441	0
0	102970	748.125682	0
0	103057	748.743923	0
0	103144	749.362164	0
0	103231	749.980405	0
0	103318	750.598646	0
0	103405	751.216887	0
0	103492	751.835128	0
0	103574	751.967920330828	0.009824365751
0	103656	752.453369	0
0	103743	753.07161	0
0	103830	753.689851	0
0	103917	754.308092	0
0	104004	754.926333	0
0	104091	755.544574	0
0	104178	756.162815	0
0	104265	756.781056	0
0	104352	757.399297	0
0	104440	757.516229738589	0.043184402914
0	104530	758.017538	0
0	104617	758.635779	0
0	104704	759.25402	0
0	104791	759.872261	0
0	104878	760.490502	0
0	104965	761.108743	0
0	105052	761.726984	0
0	105134	762.135961252651	0.009964305518
0	105216	762.345225	0
0	105349	762.657371554376	0.040389106727
0	105394	762.963466	0
0	105481	763.581707	0
0	105563	763.808985996026	0.009378035353
0	105645	764.199948	0
0	105727	764.362732380203	0.006779575587
0	105809	764.818189	0
0	105896	765.43643	0
0	105983	766.054671	0
0	106070	766.672912	0
0	106157	767.291153	0
0	106245	767.686427431329	0.06944498368
0	106335	767.909394	0
0	106422	768.527635	0
0	106509	769.145876	0
0	106596	769.764117	0
0	106683	770.382358	0
0	106770	771.000599	0
0	106857	771.61884	0
0	106944	772.237081	0
0	107077	772.785210757998	0.038374052563
0	107122	772.855322	0
0	107209	773.473563	0
0	107296	774.091804	0
0	107383	774.710045	0
0	107470	775.328286	0
0	107557	775.946527	0
0	107644	776.564768	0
0	107731	777.183009	0
0	107819	777.790289012261	0.043452306826
0	107865	777.80125	0
0	107996	778.419491	0
0	108083	779.037732	0
0	108170	779.655973	0
0	108257	780.274214	0
0	108344	780.892455	0
0	108431	781.510696	0
0	108518	782.128937	0
0	108605	782.747178	0
0	108738	782.912780582712	0.071532997458
0	108783	783.365419	0
0	108870	783.98366	0
0	108957	784.601901	0
0	109044	785.220142	0
0	109131	785.838383	0
0	109218	786.456624	0
0	109305	787.074865	0
0	109392	787.693106	0
0	109480	787.907689338899	0.066441753645
0	109570	788.311347	0
0	109652	788.475818624135	0.009543996796
0	109734	788.929588	0
0	109821	789.547829	0
0	109908	790.16607	0
0	109995	790.784311	0
0	110082	791.402552	0
0	110169	792.020793	0
0	110256	792.639034	0
0	110389	793.045334071502	0.044516969244
0	110434	793.257275	0
0	110521	793.875516	0
0	110608	794.493757	0
0	110695	795.111998	0
0	110782	795.730239	0
0	110869	796.34848	0
0	110956	796.966721	0
0	111043	797.584962	0
0	111131	798.058392209325	0.057575107067
0	111221	798.203203	0
0	111308	798.821444	0
0	111395	799.439685	0
0	111482	800.057926	0
0	111569	800.676167	0
0	111656	801.294408	0
0	111743	801.912649	0
0	111830	802.53089	0
0	111965	803.149131	0
0	112050	803.205418273636	0.094406761886
0	112095	803.767372	0
0	112182	804.385613	0
0	112269	805.003854	0
0	112356	805.622095	0
0	112443	806.240336	0
0	112530	806.858577	0
0	112617	807.476818	0
0	112704	808.095059	0
0	112792	808.182405771965	0.071394260215
0	112882	808.7133	0
0	112969	809.331541	0
0	113056	809.949782	0
0	113143	810.568023	0
0	113230	811.186264	0
0	113317	811.804505	0
0	113404	812.422746	0
0	113491	813.040987	0
0	113573	813.141611173081	0.008669879076
0	113701	813.307089529534	0.076982658269
0	113746	813.659228	0
0	113833	814.277469	0
0	113920	814.89571	0
0	114007	815.513951	0
0	114094	816.132192	0
0	114181	816.750433	0
0	114268	817.368674	0
0	114355	817.986915	0
0	114443	818.303098027898	0.072991156633
0	114533	818.605156	0
0	114615	818.90289489012	0.007409192519
0	114773	819.223397	0
0	114860	819.841638	0
0	114947	820.459879	0
0	115034	821.07812	0
0	115116	821.426335741698	0.007623748502
0	115198	821.696361	0
0	115285	822.314602	0
0	115372	822.932843	0
0	115505	823.412728855616	0.040313675745
0	115550	823.551084	0
0	115637	824.169325	0
0	115724	824.787566	0
0	115811	825.405807	0
0	115893	825.965502969592	0.007407004515
0	115975	826.024048	0
0	116062	826.642289	0
0	116149	827.26053	0
0	116236	827.878771	0
0	116324	828.406940020502	0.034524840631
0	116414	828.497012	0
0	116501	829.115253	0
0	116588	829.733494	0
0	116675	830.351735	0
0	116762	830.969976	0
0	116849	831.588217	0
0	116936	832.206458	0
0	117023	832.824699	0
0	117113	833.44294	0
0	117243	833.642525646696	0.074526783285
0	117288	834.061181	0
0	117375	834.679422	0
0	117462	835.297663	0
0	117549	835.915904	0
0	117631	836.135436036967	0.009439089834
0	117713	836.534145	0
0	117800	837.152386	0
0	117887	837.770627	0
0	117969	837.809983945937	0.010375985266
0	118046	838.362811577338	0.006858772722
0	118128	838.388868	0
0	118216	838.650637788672	0.082638925261
0	118306	839.007109	0
0	118393	839.62535	0
0	118480	840.243591	0
0	118567	840.861832	0
0	118654	841.480073	0
0	118741	842.098314	0
0	118828	842.716555	0
0	118915	843.334796	0
0	119048	843.79296439531	0.086984044704
0	119093	843.953037	0
0	119180	844.571278	0
0	119267	845.189519	0
0	119354	845.80776	0
0	119441	846.426001	0
0	119528	847.044242	0
0	119615	847.662483	0
0	119702	848.280724	0
0	119790	848.738163549692	0.032183199086
0	119880	848.898965	0
0	119967	849.517206	0
0	120054	850.135447	0
0	120141	850.753688	0
0	120228	851.371929	0
0	120315	851.99017	0
0	120402	852.608411	0
0	120489	853.226652	0
0	120624	853.844893	0
0	120709	853.886967264455	0.047109767677
0	120754	854.463134	0
0	120841	855.081375	0
0	120928	855.699616	0
0	121015	856.317857	0
0	121102	856.936098	0
0	121189	857.554339	0
0	121276	858.17258	0
0	121363	858.790821	0
0	121451	858.90922511058	0.069367613802
0	121625	859.409062	0
0	121712	860.027303	0
0	121799	860.645544	0
0	121886	861.263785	0
0	121973	861.882026	0
0	122055	862.474198266928	0.007923639591
0	122137	862.500267	0
0	122224	863.118508	0
0	122311	863.736749	0
0	122486	864.18769088158	0.056691139004
0	122573	864.35499	0
0	122660	864.973231	0
0	122747	865.591472	0
0	122834	866.209713	0
0	122921	866.827954	0
0	123008	867.446195	0
0	123095	868.064436	0
0	123182	868.682677	0
0	123270	869.1990094757	0.068009733124
0	123359	869.300918	0
0	123531	869.919159	0
0	123618	870.5374	0
0	123705	871.155641	0
0	123792	871.773882	0
0	123879	872.392123	0
0	123966	873.010364	0
0	124053	873.628605	0
0	124143	874.246846	0
0	124315	874.496523313571	0.087971681862
0	124402	874.865087	0
0	124489	875.483328	0
0	124576	876.101569	0
0	124663	876.71981	0
0	124750	877.338051	0
0	124837	877.956292	0
0	124924	878.574533	0
0	125011	879.192774	0
0	125099	879.811015	0
0	125186	880.429256	0
0	125273	881.047497	0
0	125360	881.665738	0
0	125447	882.283979	0
0	125534	882.90222	0
0	125621	883.520461	0
0	125708	884.138702	0
0	125795	884.756943	0
0	125882	885.375184	0
0	125969	885.993425	0
0	126056	886.611666	0
0	126138	887.142654019276	0.009712725273
0	126220	887.229907	0
0	126307	887.848148	0
0	126394	888.466389	0
0	126481	889.08463	0
0	126569	889.442037739371	0.033486107662
0	126659	889.702871	0
0	126746	890.321112	0
0	126833	890.939353	0
0	126920	891.557594	0
0	127007	892.175835	0
0	127094	892.794076	0
0	127176	892.902153782063	0.006668084462
0	127334	893.412317	0
0	127421	894.030558	0
0	127554	894.531591985119	0.027111918797
0	127599	894.648799	0
0	127686	895.26704	0
0	127768	895.427198379786	0.00848638659
0	127850	895.885281	0
0	127937	896.503522	0
0	128024	897.121763	0
0	128111	897.740004	0
0	128198	898.358245	0
0	128285	898.976486	0
0	128373	899.541583029696	0.037102963374
0	128463	899.594727	0
0	128545	899.966899716975	0.008803751898
0	128627	900.212968	0
0	128714	900.831209	0
0	128801	901.44945	0
0	128888	902.067691	0
0	128975	902.685932	0
0	129062	903.304173	0
0	129149	903.922414	0
0	129236	904.540655	0
0	129369	904.704478683329	0.039948078308
0	129414	905.158896	0
0	129501	905.777137	0
0	129588	906.395378	0
0	129675	907.013619	0
0	129762	907.63186	0
0	129849	908.250101	0
0	129936	908.868342	0
0	130023	909.486583	0
0	130111	909.702366347566	0.037835742545
0	130201	910.104824	0
0	130283	910.135370151863	0.00937320473
0	130365	910.723065	0
0	130452	911.341306	0
0	130534	911.805665986267	0.006058025598
0	130616	911.959547	0
0	130698	912.36209419843	0.006141393814
0	130780	912.577788	0
0	130867	913.196029	0
0	130954	913.81427	0
0	131041	914.432511	0
0	131174	914.832521966227	0.030668126426
0	131219	915.050752	0
0	131306	915.668993	0
0	131393	916.287234	0
0	131480	916.905475	0
0	131567	917.523716	0
0	131654	918.141957	0
0	131741	918.760198	0
0	131828	919.378439	0
0	131916	919.845292159959	0.043438320158
0	132006	919.99668	0
0	132093	920.614921	0
0	132180	921.233162	0
0	132267	921.851403	0
0	132354	922.469644	0
0	132441	923.087885	0
0	132528	923.706126	0
0	132615	924.324367	0
0	132750	924.942608	0
0	132835	924.989245030468	0.058752581098
0	132880	925.560849	0
0	132967	926.17909	0
0	133054	926.797331	0
0	133141	927.415572	0
0	133228	928.033813	0
0	133315	928.652054	0
0	133402	929.270295	0
0	133489	929.888536	0
0	133577	929.981296671143	0.050804221773
0	133667	930.506777	0
0	133754	931.125018	0
0	133841	931.743259	0
0	133928	932.3615	0
0	134015	932.979741	0
0	134102	933.597982	0
0	134189	934.216223	0
0	134276	934.834464	0
0	134409	935.07791025902	0.040965401542
0	134454	935.452705	0
0	134541	936.070946	0
0	134623	936.472682006002	0.006407378667
0	134705	936.689187	0
0	134792	937.307428	0
0	134879	937.925669	0
0	134966	938.54391	0
0	135053	939.162151	0
0	135140	939.780392	0
0	135228	940.064778151765	0.027833294287
0	135318	940.398633	0
0	135405	941.016874	0
0	135492	941.635115	0
0	135579	942.253356	0
0	135666	942.871597	0
0	135753	943.489838	0
0	135840	944.108079	0
0	135927	944.72632	0
0	136060	945.221065744789	0.045243188837
0	136105	945.344561	0
0	136192	945.962802	0
0	136279	946.581043	0
0	136366	947.199284	0
0	136453	947.817525	0
0	136540	948.435766	0
0	136627	949.054007	0
0	136714	949.672248	0
0	136802	950.245832047629	0.070009491677
0	136849	950.290489	0
0	136979	950.90873	0
0	137066	951.526971	0
0	137153	952.145212	0
0	137240	952.763453	0
0	137327	953.381694	0
0	137414	953.999935	0
0	137501	954.618176	0
0	137588	955.236417	0
0	137721	955.368585793607	0.046952206173
0	137766	955.854658	0
0	137853	956.472899	0
0	137940	957.09114	0
0	138027	957.709381	0
0	138114	958.327622	0
0	138201	958.945863	0
0	138288	959.564104	0
0	138375	960.182345	0
0	138463	960.342783070483	0.021149483049
0	138553	960.800586	0
0	138635	961.143180395605	0.010239101604
0	138717	961.418827	0
0	138804	962.037068	0
0	138891	962.655309	0
0	138978	963.27355	0
0	139065	963.891791	0
0	139152	964.510032	0
0	139239	965.128273	0
0	139372	965.473092899727	0.052209912958
0	139417	965.746514	0
0	139504	966.364755	0
0	139586	966.903215255531	0.00772955793
0	139744	966.982996	0
0	139831	967.601237	0
0	139918	968.219478	0
0	140005	968.837719	0
0	140087	969.425292824016	0.00658083082
0	140169	969.45596	0
0	140256	970.074201	0
0	140344	970.473369469675	0.052486482906
0	140434	970.692442	0
0	140521	971.310683	0
0	140608	971.928924	0
0	140695	972.547165	0
0	140782	973.165406	0
0	140869	973.783647	0
0	140951	973.964459694795	0.006363729718
0	141033	974.401888	0
0	141120	975.020129	0
0	141253	975.601290858294	0.068362195113
0	141298	975.63837	0
0	141385	976.256611	0
0	141472	976.874852	0
0	141559	977.493093	0
0	141646	978.111334	0
0	141733	978.729575	0
0	141820	979.347816	0
0	141907	979.966057	0
0	141997	980.584298	0
0	142082	980.649023996735	0.116095333554
0	142172	981.202539	0
0	142259	981.82078	0
0	142346	982.439021	0
0	142433	983.057262	0
0	142520	983.675503	0
0	142602	984.135268038833	0.0092710917
0	142684	984.293744	0
0	142771	984.911985	0
0	142858	985.530226	0
0	142991	985.774212075661	0.041211891413
0	143031	985.806146668604	0.006538707937
0	143113	986.148467	0
0	143195	986.364346320662	0.008393516046
0	143277	986.766708	0
0	143364	987.384949	0
0	143451	988.00319	0
0	143538	988.621431	0
0	143625	989.239672	0
0	143712	989.857913	0
0	143799	990.476154	0
0	143887	990.814769626992	0.081769442744
0	144061	991.094395	0
0	144148	991.712636	0
0	144235	992.330877	0
0	144322	992.949118	0
0	144409	993.567359	0
0	144496	994.1856	0
0	144583	994.803841	0
0	144670	995.422082	0
0	144802	996.040323	0
0	144932	996.220200276593	0.077981150098
0	145019	996.658564	0
0	145106	997.276805	0
0	145193	997.895046	0
0	145280	998.513287	0
0	145367	999.131528	0
0	145454	999.749769	0
1	38	5	2
1	45	5.000768	1
1	89	5.618241	2
1	96	5.619009	1
1	216	5.658735393026	2
1	234	5.660495393026	1
1	362	5.725525442256	2
1	369	5.725941442256	1
1	445	5.752035009195	2
1	452	5.752451009195	1
1	563	5.830636142607	2
1	570	5.832396142607	1
1	603	5.857535084496	2
1	610	5.859295084496	1
1	812	6.043484131052	2
1	819	6.043964131052	1
1	852	6.056967899142	2
1	877	6.058727899142	1
1	961	6.1110413858	2
1	987	6.1114573858	1
1	1017	6.236482	2
1	1024	6.23725	1
1	1062	6.255599804191	2
1	1069	6.256015804191	1
1	1106	6.854723	2
1	1113	6.855491	1
1	1152	7.42719499931	2
1	1159	7.42767499931	1
1	1234	7.472964	2
1	1241	7.473732	1
1	1285	8.091205	2
1	1292	8.091973	1
1	1336	8.709446	2
1	1343	8.710214	1
1	1387	9.327687	2
1	1394	9.328455	1
1	1438	9.945928	2
1	1445	9.946696	1
1	1489	10.564169	2
1	1496	10.564937	1
1	1540	11.18241	2
1	1547	11.183178	1
1	1591	11.800651	2
1	1598	11.801419	1
1	1637	11.967330886437	2
1	1644	11.967810886437	1
1	1719	12.418892	2
1	1726	12.41966	1
1	1770	13.037133	2
1	1777	13.037901	1
1	1821	13.655374	2
1	1828	13.656142	1
1	1872	14.273615	2
1	1879	14.274383	1
1	1923	14.891856	2
1	1930	14.892624	1
1	1974	15.510097	2
1	1981	15.510865	1
1	2025	16.128338	2
1	2032	16.129106	1
1	2076	16.746579	2
1	2083	16.747347	1
1	2127	17.36482	2
1	2134	17.365588	1
1	2178	17.983061	2
1	2185	17.983829	1
1	2229	18.601302	2
1	2236	18.60207	1
1	2280	19.219543	2
1	2287	19.220311	1
1	2331	19.837784	2
1	2338	19.838552	1
1	2382	20.456025	2
1	2389	20.456793	1
1	2430	20.821380325154	2
1	2437	20.823140325154	1
1	2517	20.876307011423	2
1	2525	20.878067011423	1
1	2701	20.98649603223	2
1	2726	20.98825603223	1
1	2864	21.060646681183	2
1	2871	21.061062681183	1
1	2945	21.074266	2
1	2952	21.075034	1
1	2994	21.090852962409	2
1	3001	21.091268962409	1
1	3074	21.103668818791	2
1	3081	21.104084818791	1
1	3113	21.113506158525	2
1	3120	21.113922158525	1
1	3153	21.12345014685	2
1	3160	21.12386614685	1
1	3278	21.692507	2
1	3285	21.693275	1
1	3324	22.133220027021	2
1	3331	22.133700027021	1
1	3406	22.310748	2
1	3413	22.311516	1
1	3457	22.928989	2
1	3464	22.929757	1
1	3508	23.54723	2
1	3515	23.547998	1
1	3554	23.808108092323	2
1	3561	23.808588092323	1
1	3636	24.165471	2
1	3643	24.166239	1
1	3682	24.364942240699	2
1	3689	24.365422240699	1
1	3764	24.783712	2
1	3771	24.78448	1
1	3815	25.401953	2
1	3822	25.402721	1
1	3866	26.020194	2
1	3873	26.020962	1
1	3917	26.638435	2
1	3924	26.639203	1
1	3968	27.256676	2
1	3975	27.257444	1
1	4019	27.874917	2
1	4026	27.875685	1
1	4070	28.493158	2
1	4077	28.493926	1
1	4121	29.111399	2
1	4128	29.112167	1
1	4172	29.72964	2
1	4179	29.730408	1
1	4223	30.347881	2
1	4230	30.348649	1
1	4274	30.966122	2
1	4281	30.96689	1
1	4325	31.584363	2
1	4332	31.585131	1
1	4376	32.202604	2
1	4383	32.203372	1
1	4427	32.820845	2
1	4434	32.821613	1
1	4478	33.439086	2
1	4485	33.439854	1
1	4529	34.057327	2
1	4536	34.058095	1
1	4580	34.675568	2
1	4587	34.676336	1
1	4631	35.293809	2
1	4638	35.294577	1
1	4685	35.91205	2
1	4692	35.912818	1
1	4773	35.93671007905	2
1	4780	35.93712607905	1
1	4813	35.945818735867	2
1	4821	35.946234735867	1
1	4971	36.054886559184	2
1	4978	36.055302559184	1
1	5010	36.06506887414	2
1	5018	36.06548487414	1
1	5051	36.076676514584	2
1	5059	36.077092514584	1
1	5090	36.086928142035	2
1	5098	36.087344142035	1
1	5212	36.530291	2
1	5219	36.531059	1
1	5263	37.148532	2
1	5270	37.1493	1
1	5314	37.766773	2
1	5321	37.767541	1
1	5365	38.385014	2
1	5372	38.385782	1
1	5416	39.003255	2
1	5423	39.004023	1
1	5467	39.621496	2
1	5474	39.622264	1
1	5518	40.239737	2
1	5525	40.240505	1
1	5569	40.857978	2
1	5576	40.858746	1
1	5620	41.476219	2
1	5627	41.476987	1
1	5671	42.09446	2
1	5678	42.095228	1
1	5722	42.712701	2
1	5729	42.713469	1
1	5773	43.330942	2
1	5780	43.33171	1
1	5824	43.949183	2
1	5831	43.949951	1
1	5875	44.567424	2
1	5882	44.568192	1
1	5926	45.185665	2
1	5933	45.186433	1
1	5977	45.803906	2
1	5984	45.804674	1
1	6028	46.422147	2
1	6035	46.422915	1
1	6079	47.040388	2
1	6086	47.041156	1
1	6130	47.658629	2
1	6137	47.659397	1
1	6181	48.27687	2
1	6188	48.277638	1
1	6232	48.895111	2
1	6239	48.895879	1
1	6283	49.513352	2
1	6290	49.51412	1
1	6334	50.131593	2
1	6341	50.132361	1
1	6385	50.749834	2
1	6392	50.750602	1
1	6436	51.368075	2
1	6443	51.368843	1
1	6487	51.986316	2
1	6494	51.987084	1
1	6538	52.604557	2
1	6545	52.605325	1
1	6589	53.222798	2
1	6596	53.223566	1
1	6640	53.841039	2
1	6647	53.841807	1
1	6691	54.45928	2
1	6698	54.460048	1
1	6742	55.077521	2
1	6749	55.078289	1
1	6793	55.695762	2
1	6800	55.69653	1
1	6844	56.314003	2
1	6851	56.314771	1
1	6895	56.932244	2
1	6902	56.933012	1
1	6946	57.550485	2
1	6953	57.551253	1
1	6997	58.168726	2
1	7004	58.169494	1
1	7048	58.786967	2
1	7055	58.787735	1
1	7099	59.405208	2
1	7106	59.405976	1
1	7150	60.023449	2
1	7157	60.024217	1
1	7201	60.64169	2
1	7208	60.642458	1
1	7252	61.259931	2
1	7259	61.260699	1
1	7303	61.878172	2
1	7310	61.87894	1
1	7354	62.496413	2
1	7361	62.497181	1
1	7405	63.114654	2
1	7412	63.115422	1
1	7456	63.732895	2
1	7463	63.733663	1
1	7507	64.351136	2
1	7514	64.351904	1
1	7558	64.969377	2
1	7565	64.970145	1
1	7609	65.587618	2
1	7616	65.588386	1
1	7660	66.205859	2
1	7667	66.206627	1
1	7711	66.8241	2
1	7718	66.824868	1
1	7762	67.442341	2
1	7769	67.443109	1
1	7813	68.060582	2
1	7820	68.06135	1
1	7864	68.678823	2
1	7871	68.679591	1
1	7915	69.297064	2
1	7922	69.297832	1
1	7966	69.915305	2
1	7973	69.916073	1
1	8017	70.533546	2
1	8024	70.534314	1
1	8068	71.151787	2
1	8075	71.152555	1
1	8119	71.770028	2
1	8126	71.770796	1
1	8170	72.388269	2
1	8177	72.389037	1
1	8221	73.00651	2
1	8228	73.007278	1
1	8272	73.624751	2
1	8279	73.625519	1
1	8323	74.242992	2
1	8330	74.24376	1
1	8374	74.861233	2
1	8381	74.862001	1
1	8425	75.479474	2
1	8432	75.480242	1
1	8476	76.097715	2
1	8483	76.098483	1
1	8527	76.715956	2
1	8534	76.716724	1
1	8578	77.334197	2
1	8585	77.334965	1
1	8629	77.952438	2
1	8636	77.953206	1
1	8680	78.570679	2
1	8687	78.571447	1
1	8731	79.18892	2
1	8738	79.189688	1
1	8782	79.807161	2
1	8789	79.807929	1
1	8836	80.425402	2
1	8843	80.42617	1
1	8887	81.043643	2
1	8894	81.044411	1
1	8933	81.426367458664	2
1	8940	81.426847458664	1
1	9015	81.661884	2
1	9022	81.662652	1
1	9066	82.280125	2
1	9073	82.280893	1
1	9117	82.898366	2
1	9124	82.899134	1
1	9168	83.516607	2
1	9175	83.517375	1
1	9219	84.134848	2
1	9226	84.135616	1
1	9270	84.753089	2
1	9277	84.753857	1
1	9321	85.37133	2
1	9328	85.372098	1
1	9367	85.968449463658	2
1	9374	85.968929463658	1
1	9448	85.989571	2
1	9455	85.990339	1
1	9500	86.607812	2
1	9507	86.60858	1
1	9551	87.226053	2
1	9558	87.226821	1
1	9602	87.844294	2
1	9609	87.845062	1
1	9653	88.462535	2
1	9660	88.463303	1
1	9704	89.080776	2
1	9711	89.081544	1
1	9755	89.699017	2
1	9762	89.699785	1
1	9806	90.317258	2
1	9813	90.318026	1
1	9857	90.935499	2
1	9864	90.936267	1
1	9908	91.55374	2
1	9915	91.554508	1
1	9959	92.171981	2
1	9966	92.172749	1
1	10010	92.790222	2
1	10017	92.79099	1
1	10061	93.408463	2
1	10068	93.409231	1
1	10112	94.026704	2
1	10119	94.027472	1
1	10163	94.644945	2
1	10170	94.645713	1
1	10214	95.263186	2
1	10221	95.263954	1
1	10265	95.881427	2
1	10272	95.882195	1
1	10311	96.134453135289	2
1	10318	96.134933135289	1
1	10393	96.499668	2
1	10400	96.500436	1
1	10444	97.117909	2
1	10451	97.118677	1
1	10495	97.73615	2
1	10502	97.736918	1
1	10541	97.809934450252	2
1	10548	97.810414450252	1
1	10623	98.354391	2
1	10630	98.355159	1
1	10669	98.369897943493	2
1	10676	98.370377943493	1
1	10751	98.972632	2
1	10758	98.9734	1
1	10802	99.590873	2
1	10809	99.591641	1
1	10853	100.209114	2
1	10860	100.209882	1
1	10904	100.827355	2
1	10911	100.828123	1
1	10955	101.445596	2
1	10962	101.446364	1
1	11006	102.063837	2
1	11013	102.064605	1
1	11057	102.682078	2
1	11064	102.682846	1
1	11108	103.300319	2
1	11115	103.301087	1
1	11159	103.91856	2
1	11166	103.919328	1
1	11210	104.536801	2
1	11217	104.537569	1
1	11261	105.155042	2
1	11268	105.15581	1
1	11312	105.773283	2
1	11319	105.774051	1
1	11363	106.391524	2
1	11370	106.392292	1
1	11414	107.009765	2
1	11421	107.010533	1
1	11465	107.628006	2
1	11472	107.628774	1
1	11516	108.246247	2
1	11523	108.247015	1
1	11567	108.864488	2
1	11574	108.865256	1
1	11618	109.482729	2
1	11625	109.483497	1
1	11669	110.10097	2
1	11676	110.101738	1
1	11720	110.719211	2
1	11727	110.719979	1
1	11771	111.337452	2
1	11778	111.33822	1
1	11822	111.955693	2
1	11829	111.956461	1
1	11873	112.573934	2
1	11880	112.574702	1
1	11924	113.192175	2
1	11931	113.192943	1
1	11975	113.810416	2
1	11982	113.811184	1
1	12026	114.428657	2
1	12033	114.429425	1
1	12077	115.046898	2
1	12084	115.047666	1
1	12128	115.665139	2
1	12135	115.665907	1
1	12179	116.28338	2
1	12186	116.284148	1
1	12230	116.901621	2
1	12237	116.902389	1
1	12281	117.519862	2
1	12288	117.52063	1
1	12332	118.138103	2
1	12339	118.138871	1
1	12383	118.756344	2
1	12390	118.757112	1
1	12434	119.374585	2
1	12441	119.375353	1
1	12485	119.992826	2
1	12492	119.993594	1
1	12536	120.611067	2
1	12543	120.611835	1
1	12587	121.229308	2
1	12594	121.230076	1
1	12638	121.847549	2
1	12645	121.848317	1
1	12689	122.46579	2
1	12696	122.466558	1
1	12740	123.084031	2
1	12747	123.084799	1
1	12791	123.702272	2
1	12798	123.70304	1
1	12842	124.320513	2
1	12849	124.321281	1
1	12893	124.938754	2
1	12900	124.939522	1
1	12944	125.556995	2
1	12951	125.557763	1
1	12995	126.175236	2
1	13002	126.176004	1
1	13046	126.793477	2
1	13053	126.794245	1
1	13097	127.411718	2
1	13104	127.412486	1
1	13148	128.029959	2
1	13155	128.030727	1
1	13199	128.6482	2
1	13206	128.648968	1
1	13250	129.266441	2
1	13257	129.267209	1
1	13301	129.884682	2
1	13308	129.88545	1
1	13352	130.502923	2
1	13359	130.503691	1
1	13403	131.121164	2
1	13410	131.121932	1
1	13454	131.739405	2
1	13461	131.740173	1
1	13505	132.357646	2
1	13512	132.358414	1
1	13556	132.975887	2
1	13563	132.976655	1
1	13607	133.594128	2
1	13614	133.594896	1
1	13658	134.212369	2
1	13665	134.213137	1
1	13709	134.83061	2
1	13716	134.831378	1
1	13760	135.448851	2
1	13767	135.449619	1
1	13811	136.067092	2
1	13818	136.06786	1
1	13862	136.685333	2
1	13869	136.686101	1
1	13913	137.303574	2
1	13920	137.304342	1
1	13964	137.921815	2
1	13971	137.922583	1
1	14015	138.540056	2
1	14022	138.540824	1
1	14066	139.158297	2
1	14073	139.159065	1
1	14117	139.776538	2
1	14124	139.777306	1
1	14170	140.394779	2
1	14177	140.395547	1
1	14221	141.01302	2
1	14228	141.013788	1
1	14272	141.631261	2
1	14279	141.632029	1
1	14323	142.249502	2
1	14330	142.25027	1
1	14374	142.867743	2
1	14381	142.868511	1
1	14425	143.485984	2
1	14432	143.486752	1
1	14476	144.104225	2
1	14483	144.104993	1
1	14527	144.722466	2
1	14534	144.723234	1
1	14578	145.340707	2
1	14585	145.341475	1
1	14629	145.958948	2
1	14636	145.959716	1
1	14680	146.577189	2
1	14687	146.577957	1
1	14731	147.19543	2
1	14738	147.196198	1
1	14782	147.813671	2
1	14789	147.814439	1
1	14833	148.431912	2
1	14840	148.43268	1
1	14884	149.050153	2
1	14891	149.050921	1
1	14935	149.668394	2
1	14942	149.669162	1
1	14986	150.286635	2
1	14993	150.287403	1
1	15037	150.904876	2
1	15044	150.905644	1
1	15088	151.523117	2
1	15095	151.523885	1
1	15139	152.141358	2
1	15146	152.142126	1
1	15190	152.759599	2
1	15197	152.760367	1
1	15241	153.37784	2
1	15248	153.378608	1
1	15292	153.996081	2
1	15299	153.996849	1
1	15343	154.614322	2
1	15350	154.61509	1
1	15394	155.232563	2
1	15401	155.233331	1
1	15440	155.427839554544	2
1	15447	155.428319554544	1
1	15522	155.850804	2
1	15529	155.851572	1
1	15573	156.469045	2
1	15580	156.469813	1
1	15624	157.087286	2
1	15631	157.088054	1
1	15675	157.705527	2
1	15682	157.706295	1
1	15726	158.323768	2
1	15733	158.324536	1
1	15777	158.942009	2
1	15784	158.942777	1
1	15828	159.56025	2
1	15835	159.561018	1
1	15874	159.964747581707	2
1	15881	159.965227581707	1
1	15956	160.178491	2
1	15963	160.179259	1
1	16007	160.796732	2
1	16014	160.7975	1
1	16058	161.414973	2
1	16065	161.415741	1
1	16109	162.033214	2
1	16116	162.033982	1
1	16160	162.651455	2
1	16167	162.652223	1
1	16211	163.269696	2
1	16218	163.270464	1
1	16262	163.887937	2
1	16269	163.888705	1
1	16313	164.506178	2
1	16320	164.506946	1
1	16364	165.124419	2
1	16371	165.125187	1
1	16415	165.74266	2
1	16422	165.743428	1
1	16466	166.360901	2
1	16473	166.361669	1
1	16517	166.979142	2
1	16524	166.97991	1
1	16568	167.597383	2
1	16575	167.598151	1
1	16619	168.215624	2
1	16626	168.216392	1
1	16670	168.833865	2
1	16677	168.834633	1
1	16721	169.452106	2
1	16728	169.452874	1
1	16772	170.070347	2
1	16779	170.071115	1
1	16818	170.135794819365	2
1	16825	170.136274819365	1
1	17107	170.688588	2
1	17114	170.689356	1
1	17158	171.306829	2
1	17165	171.307597	1
1	17204	171.806599115639	2
1	17211	171.807079115639	1
1	17286	171.92507	2
1	17293	171.925838	1
1	17332	172.362639903761	2
1	17339	172.363119903761	1
1	17414	172.543311	2
1	17421	172.544079	1
1	17465	173.161552	2
1	17472	173.16232	1
1	17516	173.779793	2
1	17523	173.780561	1
1	17567	174.398034	2
1	17574	174.398802	1
1	17618	175.016275	2
1	17625	175.017043	1
1	17674	175.634516	2
1	17681	175.635284	1
1	17725	176.252757	2
1	17732	176.253525	1
1	17776	176.870998	2
1	17783	176.871766	1
1	17827	177.489239	2
1	17834	177.490007	1
1	17878	178.10748	2
1	17885	178.108248	1
1	17929	178.725721	2
1	17936	178.726489	1
1	17980	179.343962	2
1	17987	179.34473	1
1	18031	179.962203	2
1	18038	179.962971	1
1	18082	180.580444	2
1	18089	180.581212	1
1	18133	181.198685	2
1	18140	181.199453	1
1	18184	181.816926	2
1	18191	181.817694	1
1	18235	182.435167	2
1	18242	182.435935	1
1	18286	183.053408	2
1	18293	183.054176	1
1	18337	183.671649	2
1	18344	183.672417	1
1	18388	184.28989	2
1	18395	184.290658	1
1	18439	184.908131	2
1	18446	184.908899	1
1	18490	185.526372	2
1	18497	185.52714	1
1	18541	186.144613	2
1	18548	186.145381	1
1	18592	186.762854	2
1	18599	186.763622	1
1	18643	187.381095	2
1	18650	187.381863	1
1	18694	187.999336	2
1	18701	188.000104	1
1	18745	188.617577	2
1	18752	188.618345	1
1	18796	189.235818	2
1	18803	189.236586	1
1	18847	189.854059	2
1	18854	189.854827	1
1	18898	190.4723	2
1	18905	190.473068	1
1	18949	191.090541	2
1	18956	191.091309	1
1	19000	191.708782	2
1	19007	191.70955	1
1	19051	192.327023	2
1	19058	192.327791	1
1	19102	192.945264	2
1	19109	192.946032	1
1	19153	193.563505	2
1	19160	193.564273	1
1	19204	194.181746	2
1	19211	194.182514	1
1	19255	194.799987	2
1	19262	194.800755	1
1	19306	195.418228	2
1	19313	195.418996	1
1	19357	196.036469	2
1	19364	196.037237	1
1	19408	196.65471	2
1	19415	196.655478	1
1	19459	197.272951	2
1	19466	197.273719	1
1	19510	197.891192	2
1	19517	197.89196	1
1	19561	198.509433	2
1	19568	198.510201	1
1	19612	199.127674	2
1	19619	199.128442	1
1	19663	199.745915	2
1	19670	199.746683	1
1	19714	200.364156	2
1	19721	200.364924	1
1	19765	200.982397	2
1	19772	200.983165	1
1	20040	201.600638	2
1	20047	201.601406	1
1	20091	202.218879	2
1	20098	202.219647	1
1	20142	202.83712	2
1	20149	202.837888	1
1	20193	203.455361	2
1	20200	203.456129	1
1	20244	204.073602	2
1	20251	204.07437	1
1	20295	204.691843	2
1	20302	204.692611	1
1	20346	205.310084	2
1	20353	205.310852	1
1	20397	205.928325	2
1	20404	205.929093	1
1	20453	206.546566	2
1	20460	206.547334	1
1	20504	207.164807	2
1	20511	207.165575	1
1	20555	207.783048	2
1	20562	207.783816	1
1	20606	208.401289	2
1	20613	208.402057	1
1	20657	209.01953	2
1	20664	209.020298	1
1	20708	209.637771	2
1	20715	209.638539	1
1	20759	210.256012	2
1	20766	210.25678	1
1	20810	210.874253	2
1	20817	210.875021	1
1	20861	211.492494	2
1	20868	211.493262	1
1	20912	212.110735	2
1	20919	212.111503	1
1	20963	212.728976	2
1	20970	212.729744	1
1	21014	213.347217	2
1	21021	213.347985	1
1	21065	213.965458	2
1	21072	213.966226	1
1	21116	214.583699	2
1	21123	214.584467	1
1	21167	215.20194	2
1	21174	215.202708	1
1	21218	215.820181	2
1	21225	215.820949	1
1	21269	216.438422	2
1	21276	216.43919	1
1	21320	217.056663	2
1	21327	217.057431	1
1	21371	217.674904	2
1	21378	217.675672	1
1	21422	218.293145	2
1	21429	218.293913	1
1	21473	218.911386	2
1	21480	218.912154	1
1	21524	219.529627	2
1	21531	219.530395	1
1	21575	220.147868	2
1	21582	220.148636	1
1	21626	220.766109	2
1	21633	220.766877	1
1	21677	221.38435	2
1	21684	221.385118	1
1	21728	222.002591	2
1	21735	222.003359	1
1	21779	222.620832	2
1	21786	222.6216	1
1	21830	223.239073	2
1	21837	223.239841	1
1	21881	223.857314	2
1	21888	223.858082	1
1	21932	224.475555	2
1	21939	224.476323	1
1	21983	225.093796	2
1	21990	225.094564	1
1	22034	225.712037	2
1	22041	225.712805	1
1	22085	226.330278	2
1	22092	226.331046	1
1	22136	226.948519	2
1	22143	226.949287	1
1	22187	227.56676	2
1	22194	227.567528	1
1	22238	228.185001	2
1	22245	228.185769	1
1	22289	228.803242	2
1	22296	228.80401	1
1	22341	229.421483	2
1	22348	229.422251	1
1	22386	229.440466872439	2
1	22393	229.440946872439	1
1	22468	230.039724	2
1	22475	230.040492	1
1	22519	230.657965	2
1	22526	230.658733	1
1	22570	231.276206	2
1	22577	231.276974	1
1	22621	231.894447	2
1	22628	231.895215	1
1	22873	232.512688	2
1	22880	232.513456	1
1	22924	233.130929	2
1	22931	233.131697	1
1	22975	233.74917	2
1	22982	233.749938	1
1	23021	233.964130954838	2
1	23028	233.964610954838	1
1	23103	234.367411	2
1	23110	234.368179	1
1	23154	234.985652	2
1	23161	234.98642	1
1	23205	235.603893	2
1	23212	235.604661	1
1	23256	236.222134	2
1	23263	236.222902	1
1	23307	236.840375	2
1	23314	236.841143	1
1	23363	237.458616	2
1	23370	237.459384	1
1	23414	238.076857	2
1	23421	238.077625	1
1	23465	238.695098	2
1	23472	238.695866	1
1	23516	239.313339	2
1	23523	239.314107	1
1	23567	239.93158	2
1	23574	239.932348	1
1	23618	240.549821	2
1	23625	240.550589	1
1	23669	241.168062	2
1	23676	241.16883	1
1	23720	241.786303	2
1	23727	241.787071	1
1	23771	242.404544	2
1	23778	242.405312	1
1	23822	243.022785	2
1	23829	243.023553	1
1	23873	243.641026	2
1	23880	243.641794	1
1	23919	244.132309598645	2
1	23926	244.132789598645	1
1	24001	244.259267	2
1	24008	244.260035	1
1	24052	244.877508	2
1	24059	244.878276	1
1	24103	245.495749	2
1	24110	245.496517	1
1	24149	245.807026258857	2
1	24156	245.807506258857	1
1	24231	246.11399	2
1	24238	246.114758	1
1	24277	246.365711655562	2
1	24284	246.366191655562	1
1	24359	246.732231	2
1	24366	246.732999	1
1	24410	247.350472	2
1	24417	247.35124	1
1	24461	247.968713	2
1	24468	247.969481	1
1	24512	248.586954	2
1	24519	248.587722	1
1	24563	249.205195	2
1	24570	249.205963	1
1	24614	249.823436	2
1	24621	249.824204	1
1	24665	250.441677	2
1	24672	250.442445	1
1	24716	251.059918	2
1	24723	251.060686	1
1	24767	251.678159	2
1	24774	251.678927	1
1	24818	252.2964	2
1	24825	252.297168	1
1	24869	252.914641	2
1	24876	252.915409	1
1	24920	253.532882	2
1	24927	253.53365	1
1	24971	254.151123	2
1	24978	254.151891	1
1	25022	254.769364	2
1	25029	254.770132	1
1	25073	255.387605	2
1	25080	255.388373	1
1	25124	256.005846	2
1	25131	256.006614	1
1	25175	256.624087	2
1	25182	256.624855	1
1	25226	257.242328	2
1	25233	257.243096	1
1	25277	257.860569	2
1	25284	257.861337	1
1	25328	258.47881	2
1	25335	258.479578	1
1	25379	259.097051	2
1	25386	259.097819	1
1	25430	259.715292	2
1	25437	259.71606	1
1	25481	260.333533	2
1	25488	260.334301	1
1	25532	260.951774	2
1	25539	260.952542	1
1	25583	261.570015	2
1	25590	261.570783	1
1	25634	262.188256	2
1	25641	262.189024	1
1	25888	262.806497	2
1	25895	262.807265	1
1	25939	263.424738	2
1	25946	263.425506	1
1	25990	264.042979	2
1	25997	264.043747	1
1	26041	264.66122	2
1	26048	264.661988	1
1	26092	265.279461	2
1	26099	265.280229	1
1	26143	265.897702	2
1	26150	265.89847	1
1	26194	266.515943	2
1	26201	266.516711	1
1	26245	267.134184	2
1	26252	267.134952	1
1	26301	267.752425	2
1	26308	267.753193	1
1	26352	268.370666	2
1	26359	268.371434	1
1	26403	268.988907	2
1	26410	268.989675	1
1	26454	269.607148	2
1	26461	269.607916	1
1	26505	270.225389	2
1	26512	270.226157	1
1	26556	270.84363	2
1	26563	270.844398	1
1	26607	271.461871	2
1	26614	271.462639	1
1	26658	272.080112	2
1	26665	272.08088	1
1	26709	272.698353	2
1	26716	272.699121	1
1	26760	273.316594	2
1	26767	273.317362	1
1	26811	273.934835	2
1	26818	273.935603	1
1	26862	274.553076	2
1	26869	274.553844	1
1	26913	275.171317	2
1	26920	275.172085	1
1	26964	275.789558	2
1	26971	275.790326	1
1	27015	276.407799	2
1	27022	276.408567	1
1	27066	277.02604	2
1	27073	277.026808	1
1	27117	277.644281	2
1	27124	277.645049	1
1	27168	278.262522	2
1	27175	278.26329	1
1	27219	278.880763	2
1	27226	278.881531	1
1	27270	279.499004	2
1	27277	279.499772	1
1	27321	280.117245	2
1	27328	280.118013	1
1	27372	280.735486	2
1	27379	280.736254	1
1	27423	281.353727	2
1	27430	281.354495	1
1	27474	281.971968	2
1	27481	281.972736	1
1	27525	282.590209	2
1	27532	282.590977	1
1	27576	283.20845	2
1	27583	283.209218	1
1	27627	283.826691	2
1	27634	283.827459	1
1	27678	284.444932	2
1	27685	284.4457	1
1	27729	285.063173	2
1	27736	285.063941	1
1	27780	285.681414	2
1	27787	285.682182	1
1	27831	286.299655	2
1	27838	286.300423	1
1	27882	286.917896	2
1	27889	286.918664	1
1	27933	287.536137	2
1	27940	287.536905	1
1	27984	288.154378	2
1	27991	288.155146	1
1	28035	288.772619	2
1	28042	288.773387	1
1	28086	289.39086	2
1	28093	289.391628	1
1	28137	290.009101	2
1	28144	290.009869	1
1	28188	290.627342	2
1	28195	290.62811	1
1	28239	291.245583	2
1	28246	291.246351	1
1	28290	291.863824	2
1	28297	291.864592	1
1	28341	292.482065	2
1	28348	292.482833	1
1	28619	293.100306	2
1	28626	293.101074	1
1	28670	293.718547	2
1	28677	293.719315	1
1	28721	294.336788	2
1	28728	294.337556	1
1	28772	294.955029	2
1	28779	294.955797	1
1	28823	295.57327	2
1	28830	295.574038	1
1	28874	296.191511	2
1	28881	296.192279	1
1	28925	296.809752	2
1	28932	296.81052	1
1	28976	297.427993	2
1	28983	297.428761	1
1	29032	298.046234	2
1	29039	298.047002	1
1	29083	298.664475	2
1	29090	298.665243	1
1	29134	299.282716	2
1	29141	299.283484	1
1	29185	299.900957	2
1	29192	299.901725	1
1	29233	300.007460361536	2
1	29240	300.008452361536	1
1	29317	300.079718111398	2
1	29324	300.082534111398	1
1	29359	300.093832021005	2
1	29366	300.094248021005	1
1	29485	300.519198	2
1	29492	300.519966	1
1	29536	301.137439	2
1	29543	301.138207	1
1	29587	301.75568	2
1	29594	301.756448	1
1	29638	302.373921	2
1	29645	302.374689	1
1	29689	302.992162	2
1	29696	302.99293	1
1	29735	303.428978792007	2
1	29742	303.429458792007	1
1	29817	303.610403	2
1	29824	303.611171	1
1	29868	304.228644	2
1	29875	304.229412	1
1	29919	304.846885	2
1	29926	304.847653	1
1	30016	305.215639555733	2
1	30023	305.216183555733	1
1	30061	305.465126	2
1	30068	305.465894	1
1	30112	306.083367	2
1	30119	306.084135	1
1	30163	306.701608	2
1	30170	306.702376	1
1	30214	307.319849	2
1	30221	307.320617	1
1	30265	307.93809	2
1	30272	307.938858	1
1	30311	307.964568827642	2
1	30318	307.965048827642	1
1	30393	308.556331	2
1	30400	308.557099	1
1	30444	309.174572	2
1	30451	309.17534	1
1	30495	309.792813	2
1	30502	309.793581	1
1	30547	310.231329248662	2
1	30554	310.232321248662	1
1	30637	310.411054	2
1	30644	310.411822	1
1	30688	311.029295	2
1	30695	311.030063	1
1	30739	311.647536	2
1	30746	311.648304	1
1	30790	312.265777	2
1	30797	312.266545	1
1	30841	312.884018	2
1	30848	312.884786	1
1	30892	313.502259	2
1	30899	313.503027	1
1	30943	314.1205	2
1	30950	314.121268	1
1	30994	314.738741	2
1	31001	314.739509	1
1	31093	315.356982	2
1	31100	315.35775	1
1	31142	315.390034988269	2
1	31149	315.390578988269	1
1	31187	315.975223	2
1	31194	315.975991	1
1	31238	316.593464	2
1	31245	316.594232	1
1	31289	317.211705	2
1	31296	317.212473	1
1	31340	317.829946	2
1	31347	317.830714	1
1	31386	318.135356467115	2
1	31393	318.135836467115	1
1	31468	318.448187	2
1	31475	318.448955	1
1	31519	319.066428	2
1	31526	319.067196	1
1	31570	319.684669	2
1	31577	319.685437	1
1	31616	319.806186483816	2
1	31623	319.806666483816	1
1	31698	320.30291	2
1	31705	320.303678	1
1	31746	320.345266879963	2
1	31753	320.346258879963	1
1	31830	320.378189490301	2
1	31837	320.378669490301	1
1	31910	320.418035610635	2
1	31917	320.420851610635	1
1	31950	320.430274842616	2
1	31957	320.430690842616	1
1	32076	320.921151	2
1	32083	320.921919	1
1	32127	321.539392	2
1	32134	321.54016	1
1	32178	322.157633	2
1	32185	322.158401	1
1	32229	322.775874	2
1	32236	322.776642	1
1	32507	323.394115	2
1	32514	323.394883	1
1	32558	324.012356	2
1	32565	324.013124	1
1	32609	324.630597	2
1	32616	324.631365	1
1	32660	325.248838	2
1	32667	325.249606	1
1	32757	325.559034019501	2
1	32764	325.559578019501	1
1	32802	325.867079	2
1	32809	325.867847	1
1	32853	326.48532	2
1	32860	326.486088	1
1	32904	327.103561	2
1	32911	327.104329	1
1	32955	327.721802	2
1	32962	327.72257	1
1	33011	328.340043	2
1	33018	328.340811	1
1	33062	328.958284	2
1	33069	328.959052	1
1	33113	329.576525	2
1	33120	329.577293	1
1	33164	330.194766	2
1	33171	330.195534	1
1	33216	330.584780592825	2
1	33223	330.585772592825	1
1	33306	330.813007	2
1	33313	330.813775	1
1	33357	331.431248	2
1	33364	331.432016	1
1	33408	332.049489	2
1	33415	332.050257	1
1	33459	332.66773	2
1	33466	332.668498	1
1	33510	333.285971	2
1	33517	333.286739	1
1	33561	333.904212	2
1	33568	333.90498	1
1	33612	334.522453	2
1	33619	334.523221	1
1	33663	335.140694	2
1	33670	335.141462	1
1	33760	335.679389301049	2
1	33767	335.679933301049	1
1	33805	335.758935	2
1	33812	335.759703	1
1	33856	336.377176	2
1	33863	336.377944	1
1	33907	336.995417	2
1	33914	336.996185	1
1	33958	337.613658	2
1	33965	337.614426	1
1	34009	338.231899	2
1	34016	338.232667	1
1	34060	338.85014	2
1	34067	338.850908	1
1	34111	339.468381	2
1	34118	339.469149	1
1	34162	340.086622	2
1	34169	340.08739	1
1	34210	340.661583379671	2
1	34217	340.662575379671	1
1	34296	340.704863	2
1	34303	340.705631	1
1	34345	340.773802043546	2
1	34352	340.776618043546	1
1	34386	340.785390914039	2
1	34393	340.785806914039	1
1	34513	341.323104	2
1	34520	341.323872	1
1	34564	341.941345	2
1	34571	341.942113	1
1	34615	342.559586	2
1	34622	342.560354	1
1	34666	343.177827	2
1	34673	343.178595	1
1	34717	343.796068	2
1	34724	343.796836	1
1	34768	344.414309	2
1	34775	344.415077	1
1	34819	345.03255	2
1	34826	345.033318	1
1	34870	345.650791	2
1	34877	345.651559	1
1	34967	345.860770732804	2
1	34974	345.861314732804	1
1	35012	346.269032	2
1	35019	346.2698	1
1	35063	346.887273	2
1	35070	346.888041	1
1	35114	347.505514	2
1	35121	347.506282	1
1	35165	348.123755	2
1	35172	348.124523	1
1	35216	348.741996	2
1	35223	348.742764	1
1	35267	349.360237	2
1	35274	349.361005	1
1	35318	349.978478	2
1	35325	349.979246	1
1	35369	350.596719	2
1	35376	350.597487	1
1	35421	350.857597539416	2
1	35428	350.858589539416	1
1	35511	351.21496	2
1	35518	351.215728	1
1	35562	351.833201	2
1	35569	351.833969	1
1	35613	352.451442	2
1	35620	352.45221	1
1	35664	353.069683	2
1	35671	353.070451	1
1	35941	353.687924	2
1	35948	353.688692	1
1	35992	354.306165	2
1	35999	354.306933	1
1	36043	354.924406	2
1	36050	354.925174	1
1	36094	355.542647	2
1	36101	355.543415	1
1	36191	356.030988801523	2
1	36198	356.031532801523	1
1	36236	356.160888	2
1	36243	356.161656	1
1	36287	356.779129	2
1	36294	356.779897	1
1	36338	357.39737	2
[...]
44	3033	21.100598299438	15.023552432281
44	3231	21.143773166831	0.027233974883
44	9403	85.980974616194	0.008680455561
44	15910	159.976367185511	0.007774906829
44	17061	170.444909557615	0.036759729792
44	19851	201.143779836825	0.00668231389
44	22788	232.105020969666	0.020220157397
44	23057	233.975966983687	0.007991331874
44	25801	262.699898605053	0.023730468901
44	28435	292.689095975685	0.006690072129
44	30347	307.975743425464	0.007329900847
44	32461	323.15757830094	0.069753611164
44	35749	353.5106123543	0.006005914016
44	36684	360.989066356319	0.010073890093
44	36812	361.084886639332	0.048033095881
44	36850	361.094301174943	0.047480549974
44	37355	366.097155171096	0.060301627645
44	38417	371.393535973396	0.05234469166
44	39312	376.404824543798	0.063633262062
44	40541	381.975324462924	0.006561809963
44	53105	455.979424491069	0.007464001993
44	59834	493.614053275304	0.035244238973
44	60576	498.599561723516	0.020752687185
44	61408	503.665895344754	0.021207006145
44	62150	508.717739347112	0.073051008503
44	65988	529.977342876561	0.00623399734
44	78476	603.978504166231	0.010377287523
44	82193	625.621402160719	0.020585894415
44	83022	630.73145099737	0.130634731066
44	83854	635.814422316494	0.032563687117
44	84673	640.81558312387	0.033724494493
44	90960	677.978034837103	0.0079004739
44	103612	751.980395760778	0.008630732975
44	104485	757.591303229889	0.067156191509
44	105304	762.593238136658	0.069091098278
44	106290	767.754416470324	0.065441618004
44	107032	772.723092394444	0.034117542124
44	115931	825.97755045531	0.008202788743
44	126614	889.489399934208	0.039444895046
44	127509	894.480735755331	0.030780716169
44	128418	899.562526480813	0.018396030126
44	128583	899.978063908803	0.007319494853
44	129324	904.64078629403	0.096655843343
44	140989	973.977040768194	0.008736376424
45	708	5.99637644229	2
45	715	5.99813644229	1
45	910	6.084888924482	2
45	917	6.086648924482	1
45	952	6.110879024078	2
45	968	6.111295024078	1
45	1675	11.98045357145	2
45	1682	11.98093357145	1
45	3035	21.100598299438	2
45	3043	21.101014299438	1
45	3233	21.143773166831	2
45	3241	21.144189166831	1
45	9405	85.980974616194	2
45	9412	85.981454616194	1
45	15912	159.976367185511	2
45	15919	159.976847185511	1
45	17063	170.444909557615	2
45	17070	170.445645557615	1
45	19853	201.143779836825	2
45	19869	201.144515836825	1
45	22790	232.105020969666	2
45	22797	232.105756969666	1
45	23059	233.975966983687	2
45	23066	233.976446983687	1
45	25803	262.699898605053	2
45	25811	262.700634605053	1
45	28437	292.689095975685	2
45	28464	292.689831975685	1
45	30349	307.975743425464	2
45	30356	307.976223425464	1
45	32463	323.15757830094	2
45	32470	323.15831430094	1
45	35751	353.5106123543	2
45	35767	353.5113483543	1
45	36686	360.989066356319	2
45	36693	360.989866356319	1
45	36814	361.084886639332	2
45	36821	361.085430639332	1
45	36852	361.094301174943	2
45	36859	361.094717174943	1
45	37357	366.097155171096	2
45	37364	366.105347171096	1
45	38419	371.393535973396	2
45	38426	371.394079973396	1
45	39314	376.404824543798	2
45	39321	376.413016543798	1
45	40543	381.975324462924	2
45	40551	381.975804462924	1
45	53107	455.979424491069	2
45	53114	455.979904491069	1
45	59836	493.614053275304	2
45	59843	493.614597275304	1
45	60578	498.599561723516	2
45	60585	498.607753723516	1
45	61410	503.665895344754	2
45	61417	503.666439344754	1
45	62152	508.717739347112	2
45	62159	508.725931347112	1
45	65990	529.977342876561	2
45	65998	529.977822876561	1
45	78478	603.978504166231	2
45	78485	603.978984166231	1
45	82195	625.621402160719	2
45	82202	625.621946160719	1
45	83024	630.73145099737	2
45	83031	630.73964299737	1
45	83856	635.814422316494	2
45	83863	635.814966316494	1
45	84675	640.81558312387	2
45	84682	640.82377512387	1
45	90962	677.978034837103	2
45	90969	677.978514837103	1
45	103614	751.980395760778	2
45	103621	751.980875760778	1
45	104487	757.591303229889	2
45	104494	757.591847229889	1
45	105306	762.593238136658	2
45	105313	762.601430136658	1
45	106292	767.754416470324	2
45	106299	767.754960470324	1
45	107034	772.723092394444	2
45	107041	772.731284394444	1
45	115933	825.97755045531	2
45	115940	825.97803045531	1
45	126616	889.489399934208	2
45	126623	889.489943934208	1
45	127511	894.480735755331	2
45	127518	894.488927755331	1
45	128420	899.562526480813	2
45	128427	899.563070480813	1
45	128585	899.978063908803	2
45	128592	899.978543908803	1
45	129326	904.64078629403	2
45	129333	904.64897829403	1
45	140991	973.977040768194	2
45	140998	973.977520768194	1
46	2584	20.914563799858	1
47	8823	80.000630261112	1
48	8823	80.000630261112	5
49	14158	140.047328828027	1
50	29226	300	0
50	44023	401.878579094539	1
50	44023	401.878579094539	0
50	66547	534.079525899332	1
50	66547	534.079525899332	0
50	88763	666.024991891591	1
50	88763	666.024991891591	0
50	111122	798.000817102258	1
50	111122	798.000817102258	0
50	133568	929.93049244937	1
50	133568	929.93049244937	0
51	29960	305.087635411189	0
51	31035	315.233876669653	10.191130336225
51	44897	406.961937979653	10.146228653869
51	46471	417.134808045384	10.180536983429
51	67334	539.151155263573	10.130362047045
51	69226	549.291782456722	10.155710289823
51	89703	671.112790654132	10.122835575265
51	91431	681.247361924302	10.16362473766
51	111909	803.066309509116	10.129786767991
51	113647	813.184953192956	10.110194409492
51	134355	934.989213970934	10.119095359515
51	136006	945.067325572756	10.106452408108
52	30536	310.191130336225	10.191130336225
52	31739	320.337358990094	10.146228653869
52	33205	330.511926880343	10.174567890249
52	34203	340.653332485389	10.141405605046
52	35410	350.830550782941	10.177218297552
52	36639	360.961971846815	10.131421063874
52	38179	371.120899482087	10.158927635272
52	40167	381.428568854789	10.307669372702
52	42218	391.690131966277	10.261563111488
52	44023	401.878579094539	10.188447128262
52	45684	412.059116077968	10.180536983429
52	47335	422.189478125013	10.130362047045
52	48996	432.38542821936	10.195950094347
52	50570	442.54254351564	10.15711529628
52	52538	452.761219134389	10.218675618749
52	54189	462.845969715966	10.084750581577
52	56481	473.234917315828	10.388947599862
52	58223	483.495804577378	10.26088726155
52	61354	503.623306034507	10.127501457129
52	62928	513.741483658103	10.118177623596
52	64819	523.975609970761	10.234126312658
52	66547	534.079525899332	10.103915928571
52	68439	544.235236189155	10.155710289823
52	70013	554.35807176442	10.122835575265
52	71587	564.483012779902	10.124941015482
52	73325	574.640916303169	10.157903523267
52	74899	584.784141786989	10.14322548382
52	76637	594.981763050243	10.197621263254
52	78686	605.215134069202	10.233371018959
52	80592	615.540849678777	10.325715609575
52	83800	635.755195308361	10.214345629584
52	85451	645.839327434861	10.0841321265
52	87025	655.935287813145	10.095960378284
52	88763	666.024991891591	10.089704078446
52	90567	676.188616629251	10.16362473766
52	92303	686.318403397242	10.129786767991
52	94110	696.439419226	10.121015828758
52	95684	706.580027633177	10.140608407177
52	97422	716.735281817484	10.155254184307
52	98996	726.839436864395	10.104155046911
52	100825	737.169431684586	10.329994820191
52	102874	747.473045335675	10.303613651089
52	106236	767.616982447649	10.143937111974
52	107810	777.746836705435	10.129854257786
52	109471	787.841247585254	10.094410879819
52	111122	798.000817102258	10.159569517004
52	112775	808.11101151175	10.110194409492
52	114434	818.230106871265	10.119095359515
52	116315	828.372415179871	10.142308308606
52	118207	838.567998863411	10.19558368354
52	119781	848.705980350606	10.137981487195
52	121442	858.839857496778	10.133877146172
52	123261	869.130999742576	10.291142245798
52	125090	879.408551631709	10.277551889133
52	128364	899.504480066322	10.095928434613
52	130102	909.664530605021	10.160050538699
52	131907	919.801853839801	10.13732323478
52	133568	929.93049244937	10.128638609569
52	135219	940.036944857478	10.106452408108
52	136793	950.175822555952	10.138877698474
52	138454	960.321633587434	10.145811031482
52	140335	970.420882986769	10.099249399335
52	141986	980.532928663181	10.112045676412
52	143878	990.733000184248	10.200071521067
53	30536	310.191130336225	187.6141249223
53	31739	320.337358990094	188.444402864
53	33205	330.511926880343	187.91952843839
53	34203	340.653332485389	188.53402323724
53	35410	350.830550782941	187.87058939867
53	36639	360.961971846815	188.71982399564
53	38179	371.120899482087	188.20884139006
53	40167	381.428568854789	185.49295004199
53	42218	391.690131966277	186.32638899423
53	44023	401.878579094539	187.66353458284
53	45684	412.059116077968	187.80934670855
53	47335	422.189478125013	188.73955255703
53	48996	432.38542821936	187.52543728711
53	50570	442.54254351564	188.2424235846
53	52538	452.761219134389	187.10839558229
53	54189	462.845969715966	189.59318671628
53	56481	473.234917315828	184.04174066923
53	58223	483.495804577378	186.33866168326
53	61354	503.623306034507	188.79286348106
53	62928	513.741483658103	188.96683485187
53	64819	523.975609970761	186.82591377001
53	66547	534.079525899332	189.23356187015
53	68439	544.235236189155	188.26846625548
53	70013	554.35807176442	188.87988309046
53	71587	564.483012779902	188.84060628861
53	73325	574.640916303169	188.2278164604
53	74899	584.784141786989	188.50019681116
53	76637	594.981763050243	187.49470593595
53	78686	605.215134069202	186.83970281716
53	80592	615.540849678777	185.16876430598
53	83800	635.755195308361	187.18771317687
53	85451	645.839327434861	189.60481437718
53	87025	655.935287813145	189.38267667063
53	88763	666.024991891591	189.50010675581
53	90567	676.188616629251	188.12186098482
53	92303	686.318403397242	188.75027123391
53	94110	696.439419226	188.9138434669
53	95684	706.580027633177	188.54884472679
53	97422	716.735281817484	188.27692200503
53	98996	726.839436864395	189.22908359215
53	100825	737.169431684586	185.09205796142
53	102874	747.473045335675	185.56596401476
53	106236	767.616982447649	188.48697294693
53	107810	777.746836705435	188.74901369192
53	109471	787.841247585254	189.41174703147
53	111122	798.000817102258	188.19695035305
53	112775	808.11101151175	189.11604688876
53	114434	818.230106871265	188.94969679302
53	116315	828.372415179871	188.51724300055
53	118207	838.567998863411	187.5321766116
53	119781	848.705980350606	188.59770087517
53	121442	858.839857496778	188.67408519179
53	123261	869.130999742576	185.79084365302
53	125090	879.408551631709	186.03652120907
53	128364	899.504480066322	189.38327588029
53	130102	909.664530605021	188.18804027768
53	131907	919.801853839801	188.60994719396
53	133568	929.93049244937	188.77166751647
53	135219	940.036944857478	189.18606874021
53	136793	950.175822555952	188.58103005698
53	138454	960.321633587434	188.45215962205
53	140335	970.420882986769	189.32100044246
53	141986	980.532928663181	189.08142439072
53	143878	990.733000184248	187.4496660196
54	32701	325.425952910426	0
54	33704	335.587328013816	10.174567890249
54	48122	427.245756665997	10.141405605046
54	49783	437.45574546241	10.195950094347
54	70800	559.385247434968	10.15711529628
54	72538	569.561116849473	10.124941015482
54	93323	691.39545096803	10.157903523267
54	94897	701.485868214166	10.121015828758
54	115451	823.311015327689	10.140608407177
54	117102	833.409487441493	10.142308308606
54	137665	955.25374934742	10.19558368354
54	139318	965.345330491474	10.145811031482
55	34911	345.781719343337	0
55	36135	355.860144960407	10.177218297552
55	51434	447.638163838958	10.131421063874
55	53402	457.783488720631	10.218675618749
55	74112	579.680915257065	10.084750581577
55	75686	589.826858246669	10.14322548382
55	96543	711.6628772128	10.197621263254
55	98209	721.774046209841	10.155254184307
55	118994	843.658555088463	10.104155046911
55	120568	853.740710970683	10.137981487195
55	141199	975.481286769466	10.133877146172
55	142937	985.651571417726	10.112045676412
56	37295	366.036853543451	0
56	39303	376.341191281736	10.158927635272
56	60567	498.578809036331	10.307669372702
56	62141	508.644688338609	10.127501457129
56	82926	630.600816266304	10.118177623596
56	84664	640.781858629377	10.214345629584
56	105295	762.52414703838	10.0841321265
56	107023	772.68897485232	10.143937111974
56	127500	894.449955039162	10.129854257786
56	129264	904.544130450687	10.095928434613
57	37827	370.436361341715	1
57	37903	370.45773921999	1
57	38067	371.043418868134	1
57	38143	371.099611008887	1
57	38222	371.154601512937	1
57	38326	371.341191281736	1
57	39009	374.909545469325	1
57	39085	374.936851634711	1
57	41307	386.482857727552	1
57	41343	386.495277106813	1
57	41383	386.505182724168	1
57	41384	386.505706537317	1
57	42680	393.812129455744	1
57	46769	418.478845265651	1
57	47380	422.245756665997	1
57	47463	422.329132182959	1
57	48124	427.245756665997	1
57	48205	427.275060182959	1
57	49041	432.45574546241	1
57	49785	437.45574546241	1
57	50781	443.144568751	1
57	51819	448.926906652633	1
57	51895	448.949281010041	1
57	54224	462.863096904501	1
57	54302	462.899896080775	1
57	54385	463.004471440065	1
57	54462	463.076205650375	1
57	54634	463.175343712622	1
57	55402	467.813567994684	1
57	55573	468.151942253685	1
57	55659	468.261031581624	1
57	56520	473.284848917198	1
57	56607	473.420991079044	1
57	57392	478.429506426169	1
57	57478	478.517144944392	1
57	59562	492.480444635314	1
57	63574	517.144302935422	1
57	64525	522.908561123525	1
57	64601	522.936004113355	1
57	67970	541.812543395954	1
57	70058	554.385247434968	1
57	70802	559.385247434968	1
57	71719	564.561116849473	1
57	72059	566.480273562453	1
57	72540	569.561116849473	1
57	76071	591.146462394583	1
57	76676	595.056218549027	1
57	76763	595.120565017425	1
57	77106	596.905486354458	1
57	77182	596.93204344128	1
57	77778	600.161314779824	1
57	77864	600.258020882401	1
57	78725	605.298198096669	1
57	78725	605.298198096669	1
57	78811	605.328468182959	1
57	78899	605.480434971329	1
57	79684	610.44426640252	1
57	79770	610.571678844025	1
57	80626	615.813494703657	1
57	80626	615.813494703657	1
57	80712	615.838565182959	1
57	84533	640.476289475999	1
57	88545	665.14412502006	1
57	89583	670.909142906742	1
57	89659	670.931562924565	1
57	92350	686.39545096803	1
57	92941	689.812959108725	1
57	93325	691.39545096803	1
57	94155	696.485868214166	1
57	94899	701.485868214166	1
57	97030	714.477439886447	1
57	99035	726.876315347705	1
57	99122	726.985055371571	1
57	99907	732.038743232045	1
57	99907	732.038743232045	1
57	99992	732.067873182959	1
57	100080	732.209437218505	1
57	100864	737.251814356138	1
57	100951	737.372016854881	1
57	101294	739.145058910171	1
57	101813	742.421657655505	1
57	101899	742.531864139237	1
57	102329	744.907979155999	1
57	102405	744.932696789622	1
57	105593	763.812830693001	1
57	109682	788.47966332111	1
57	113603	813.145455870056	1
57	114479	818.311015327689	1
57	114645	818.906739587095	1
57	114721	818.933572222926	1
57	115453	823.311015327689	1
57	116360	828.409487441493	1
57	117104	833.409487441493	1
57	117185	833.459397182959	1
57	117999	837.813828642912	1
57	121481	858.917142410371	1
57	121568	859.053168116085	1
57	122085	862.478042963903	1
57	122430	864.087646188945	1
57	122516	864.188919384971	1
57	123300	869.201556896691	1
57	123474	869.378746913205	1
57	124259	874.342943781947	1
57	124345	874.497751816962	1
57	126168	887.146498716251	1
57	127206	892.905998479038	1
57	127282	892.929815242573	1
57	130564	911.809510683242	1
57	134653	936.476526702977	1
57	136838	950.25374934742	1
57	136921	950.306946182959	1
57	137667	955.25374934742	1
57	138499	960.345330491474	1
57	138665	961.14702509258	1
57	139320	965.345330491474	1
57	139616	966.907059952506	1
57	139692	966.932407184209	1
57	143061	985.809991365579	1
57	143917	990.822686926783	1
57	144004	990.920267528012	1
57	144789	995.982000509937	1
57	144789	995.982000509937	1
57	144874	996.056780182959	1
57	144962	996.221428779984	1
58	37827	370.436361341715	0
58	37903	370.45773921999	0
58	38067	371.043418868134	0
58	38143	371.099611008887	0
58	38222	371.154601512937	0
58	38326	371.341191281736	0
58	39009	374.909545469325	1
58	39085	374.936851634711	1
58	41307	386.482857727552	0
58	41343	386.495277106813	0
58	41383	386.505182724168	0
58	41384	386.505706537317	0
58	42680	393.812129455744	1
58	46769	418.478845265651	1
58	47380	422.245756665997	0
58	47463	422.329132182959	0
58	48124	427.245756665997	0
58	48205	427.275060182959	0
58	49041	432.45574546241	0
58	49785	437.45574546241	0
58	50781	443.144568751	1
58	51819	448.926906652633	1
58	51895	448.949281010041	1
58	54224	462.863096904501	0
58	54302	462.899896080775	0
58	54385	463.004471440065	0
58	54462	463.076205650375	0
58	54634	463.175343712622	0
58	55402	467.813567994684	1
58	55573	468.151942253685	0
58	55659	468.261031581624	0
58	56520	473.284848917198	0
58	56607	473.420991079044	0
58	57392	478.429506426169	0
58	57478	478.517144944392	0
58	59562	492.480444635314	1
58	63574	517.144302935422	1
58	64525	522.908561123525	1
58	64601	522.936004113355	1
58	67970	541.812543395954	1
58	70058	554.385247434968	0
58	70802	559.385247434968	0
58	71719	564.561116849473	0
58	72059	566.480273562453	1
58	72540	569.561116849473	0
58	76071	591.146462394583	1
58	76676	595.056218549027	0
58	76763	595.120565017425	0
58	77106	596.905486354458	1
58	77182	596.93204344128	1
58	77778	600.161314779824	0
58	77864	600.258020882401	0
58	78725	605.298198096669	0
58	78725	605.298198096669	0
58	78811	605.328468182959	0
58	78899	605.480434971329	0
58	79684	610.44426640252	0
58	79770	610.571678844025	0
58	80626	615.813494703657	1
58	80626	615.813494703657	1
58	80712	615.838565182959	1
58	84533	640.476289475999	1
58	88545	665.14412502006	1
58	89583	670.909142906742	1
58	89659	670.931562924565	1
58	92350	686.39545096803	0
58	92941	689.812959108725	1
58	93325	691.39545096803	0
58	94155	696.485868214166	0
58	94899	701.485868214166	0
58	97030	714.477439886447	1
58	99035	726.876315347705	0
58	99122	726.985055371571	0
58	99907	732.038743232045	0
58	99907	732.038743232045	0
58	99992	732.067873182959	0
58	100080	732.209437218505	0
58	100864	737.251814356138	0
58	100951	737.372016854881	0
58	101294	739.145058910171	1
58	101813	742.421657655505	0
58	101899	742.531864139237	0
58	102329	744.907979155999	1
58	102405	744.932696789622	1
58	105593	763.812830693001	1
58	109682	788.47966332111	1
58	113603	813.145455870056	1
58	114479	818.311015327689	0
58	114645	818.906739587095	1
58	114721	818.933572222926	1
58	115453	823.311015327689	0
58	116360	828.409487441493	0
58	117104	833.409487441493	0
58	117185	833.459397182959	0
58	117999	837.813828642912	1
58	121481	858.917142410371	0
58	121568	859.053168116085	0
58	122085	862.478042963903	1
58	122430	864.087646188945	0
58	122516	864.188919384971	0
58	123300	869.201556896691	0
58	123474	869.378746913205	0
58	124259	874.342943781947	0
58	124345	874.497751816962	0
58	126168	887.146498716251	1
58	127206	892.905998479038	1
58	127282	892.929815242573	1
58	130564	911.809510683242	1
58	134653	936.476526702977	1
58	136838	950.25374934742	0
58	136921	950.306946182959	0
58	137667	955.25374934742	0
58	138499	960.345330491474	0
58	138665	961.14702509258	1
58	139320	965.345330491474	0
58	139616	966.907059952506	1
58	139692	966.932407184209	1
58	143061	985.809991365579	1
58	143917	990.822686926783	0
58	144004	990.920267528012	0
58	144789	995.982000509937	0
58	144789	995.982000509937	0
58	144874	996.056780182959	0
58	144962	996.221428779984	0
59	37869	370.447883156499	1
60	37869	370.447883156499	3
61	41431	386.59009384047	0
61	43236	396.772816406685	10.261563111488
61	63879	518.890520389794	10.188447128262
61	65683	529.022206898028	10.234126312658
61	86238	650.86659196759	10.103915928571
61	87899	660.980718480675	10.095960378284
61	108684	782.798206312052	10.089704078446
61	110335	792.91023675989	10.094410879819
61	131120	914.710283647357	10.159569517004
61	132694	924.84783958095	10.13732323478
62	55531	468.079021650375	0
62	57352	478.331109501398	10.388947599862
62	77738	600.098554694929	10.26088726155
62	79644	610.393110479946	10.233371018959
62	99867	731.963649810346	10.325715609575
62	101773	742.33501521784	10.329994820191
62	122390	863.984375516844	10.303613651089
62	124132	874.240593990896	10.291142245798
62	144749	995.882567764679	10.277551889133

