version 3
run General-0-20220207-09:00:17-3053
attr configname General
attr datetime 20220207-09:00:17
attr datetimef 20220207-090017
attr experiment General
attr inifile HybridMeter.ini
attr iterationvars ""
attr iterationvarsd ""
attr iterationvarsf ""
attr measurement ""
attr network HybridMeter_Net
attr processid 3053
attr repetition 0
attr replication #0
attr resultdir results
attr runnumber 0
attr seedset 0
config debug-on-errors true
config image-path ../../../../inet4.3/images
config network HybridMeter_Net
config **.*.*.BERFilename "\"./BERDATA/RSC_M_2.txt\""
config **.*.*.standaloneRFNetwork false
config **.radio.centerFrequency "2450 MHz"
config **.radio.bandwidth "2.8 MHz"
config **.radio.headerLength "(1 *8 + 7 + 1) * 16us"
config **.transmitter.modulation "\"BPSK\""
config **.transmitter.bitrate 250kbps
config **.transmitter.power 5mW
config **.receiver.modulation "\"BPSK\""
config **.receiver.sensitivity -100dBm
config **.receiver.minInterferencePower -120dBm
config *.RfBaseNode.mobility.typename StationaryMobility
config *.PLC_BN.hasRF true
config *.PLC_BN.hasPRIME true
config *.PLC_BN.mac.amIHybridMAC true
config *.PLC_BN.mac.oneOfEveryXNodesIsRF 0
config *.*.rflan.PHYLayerAbstraction.posicionYdelBN 300
config *.RfServiceNode.mobility.typename StationaryMobility
config *.PLC_SN[*].hasRF true
config *.PLC_SN[*].hasPRIME true
config *.PLC_SN[*].mac.amIHybridMAC true
config *.PLC_SN[*].mac.oneOfEveryXNodesIsRF 2
config sim-time-limit 3000s
config **.endSimTime 50000
config **.uniform_d true
config **.fixedArch false
config **.recordDLMSCOSEMAppMsgRoundtripLatency true
config **.recordDLMSCOSEMAppMsgLatency false
config **.recordDLMSCOSEMAppTTRAllMeters true
config **.record_app_roundtrip true
config **.record_PRO_Num_Switches true
config **.record_REG true
config **.printLog false
config **.PLC_BN.mac.DEFAULT_ALV_TIME 120
config **.BER_SIM -1.0
config **.PLC_SN[*].mac.DEFAULT_COMMUNICATION_MODE 0
config **.PLC_SN[*].mac.RANDOM_REGISTRATION_NUMBER 10
config **.PLC_SN[*].mac.RANDOM_REGISTRATION false
config **.PLC_SN[*].mac.ALV_OFFSET 60
config **.PLC_SN[*].mac.SWITCH_CAPABILITY true
config **.mac.PRN_WAIT_TIME 30
config **.interAppMsgTime 10.0
config **.firstAppMsgAt 300.0
config **.PLC_BN.mac.promotionNode_EUI48 -1
config **.PLC_BN.mac.promotionNode_2ndLevel_EUI48 -1
config **.ctrlIndComMode 0
config **.initialIndComMode 0
config **.usePRM true
config **.interPromotionTime 200
config **.appBlockBehaviour true
config **.AppReqMsgSize_Bytes 70
config **.AppResMsgSize_Bytes 1568
config **.AppGetReqSize_Bytes 71
config **.AppGetReqNextSize_Bytes 14
config **.AppResBlockSize_Bytes 239
config **.AppProcessingTime 5.0
config **.llc.llcReTxTimer 10
config **.PLC_SN[*].mac.allowSwitchIfDBPSK_FEC true
config **.PLC_SN[*].mac.refreshSwitchPower false
config **.PLC_SN[*].mac.numDisconnectionsBeforePRN 5
config **.alvNChances 3
config **.plcBus[*].impulsive false
config **.sequentialPollingInterval 9
config **.useSequentialPolling true
config **.sendALV true
config **.appTimeOut 50
config **.txQueueLimit 10000
config warmup-period 5s
config **.llc.CIMTUSizeBytes 256
config **.llc.CIMTUSizeBits 2048
config **.llc.defaultWindowSize 1
config repeat 500
config **.appBehavior 2001
config **.nBranches 2
config **.PLC_SN[*].mac.CAP_CFP false
config **.PLC_SN[*].llc.CAP_CFP false
config **.PLC_BN.mac.policy 1
config **.plcBus[*].nullAttenuation false
config **.nHostsPerBranch 5
config **.attFileAddress "\"topologiasLINTER/att/atenuaciones_5.txt\""
config **.CAP_CFP_NUM_SN -1
config **.busLength 300
config **.busLengthForRadios 300
config **.verticalDistanceBetweenBuses 20
config **.positions "\"25 38 37\""
config **.archFileAddress "\"\""

vector 0 HybridMeter_Net.PLC_BN.mac PLCAccessDelay ETV
vector 1 HybridMeter_Net.PLC_SN[5].mac I_received_BCN ETV
vector 2 HybridMeter_Net.PLC_SN[0].mac I_received_BCN ETV
vector 3 HybridMeter_Net.PLC_SN[0].mac I_sent_REG_REQ ETV
vector 4 HybridMeter_Net.PLC_SN[6].mac I_received_BCN ETV
vector 5 HybridMeter_Net.PLC_SN[1].mac I_received_BCN ETV
vector 6 HybridMeter_Net.PLC_SN[6].mac I_sent_REG_REQ ETV
vector 7 HybridMeter_Net.PLC_SN[1].mac I_sent_REG_REQ ETV
vector 8 HybridMeter_Net.PLC_SN[7].mac I_received_BCN ETV
vector 9 HybridMeter_Net.PLC_SN[2].mac I_received_BCN ETV
vector 10 HybridMeter_Net.PLC_SN[7].mac I_sent_REG_REQ ETV
vector 11 HybridMeter_Net.PLC_SN[2].mac I_sent_REG_REQ ETV
vector 12 HybridMeter_Net.PLC_SN[8].mac I_received_BCN ETV
vector 13 HybridMeter_Net.PLC_SN[3].mac I_received_BCN ETV
vector 14 HybridMeter_Net.PLC_SN[8].mac I_sent_REG_REQ ETV
vector 15 HybridMeter_Net.PLC_SN[3].mac I_sent_REG_REQ ETV
vector 16 HybridMeter_Net.PLC_SN[9].mac PLCMessagesWithErrors ETV
vector 17 HybridMeter_Net.PLC_SN[4].mac PLCMessagesWithErrors ETV
vector 18 HybridMeter_Net.PLC_SN[8].mac PLCTxAttemptsBeforeTx ETV
vector 19 HybridMeter_Net.PLC_SN[8].mac PLCAccessDelay ETV
vector 20 HybridMeter_Net.PLC_SN[8].rflan.wlan.radio transmissionState:vector ETV
attr interpolationmode sample-hold
attr source transmissionStateChanged
attr title "Radio transmission state, vector"
vector 21 HybridMeter_Net.PLC_SN[3].rflan.wlan.radio receptionState:vector ETV
attr interpolationmode sample-hold
attr source receptionStateChanged
attr title "Radio reception state, vector"
vector 22 HybridMeter_Net.PLC_SN[7].rflan.wlan.radio receptionState:vector ETV
attr interpolationmode sample-hold
attr source receptionStateChanged
attr title "Radio reception state, vector"
vector 23 HybridMeter_Net.PLC_SN[9].rflan.wlan.radio receptionState:vector ETV
attr interpolationmode sample-hold
attr source receptionStateChanged
attr title "Radio reception state, vector"
vector 24 HybridMeter_Net.PLC_SN[2].rflan.wlan.radio receptionState:vector ETV
attr interpolationmode sample-hold
attr source receptionStateChanged
attr title "Radio reception state, vector"
vector 25 HybridMeter_Net.PLC_SN[4].rflan.wlan.radio receptionState:vector ETV
attr interpolationmode sample-hold
attr source receptionStateChanged
attr title "Radio reception state, vector"
vector 26 HybridMeter_Net.PLC_SN[6].rflan.wlan.radio receptionState:vector ETV
attr interpolationmode sample-hold
attr source receptionStateChanged
attr title "Radio reception state, vector"
vector 27 HybridMeter_Net.PLC_SN[1].rflan.wlan.radio receptionState:vector ETV
attr interpolationmode sample-hold
attr source receptionStateChanged
attr title "Radio reception state, vector"
vector 28 HybridMeter_Net.PLC_SN[5].rflan.wlan.radio receptionState:vector ETV
attr interpolationmode sample-hold
attr source receptionStateChanged
attr title "Radio reception state, vector"
vector 29 HybridMeter_Net.PLC_SN[0].rflan.wlan.radio receptionState:vector ETV
attr interpolationmode sample-hold
attr source receptionStateChanged
attr title "Radio reception state, vector"
vector 30 HybridMeter_Net.PLC_SN[3].mac PLCTxAttemptsBeforeTx ETV
vector 31 HybridMeter_Net.PLC_SN[3].mac PLCAccessDelay ETV
vector 32 HybridMeter_Net.PLC_BN.mac PLCMessagesWithErrors ETV
vector 33 HybridMeter_Net.PLC_SN[1].mac PLCTxAttemptsBeforeTx ETV
vector 34 HybridMeter_Net.PLC_SN[1].mac PLCAccessDelay ETV
vector 35 HybridMeter_Net.PLC_BN.mac PLCTxQueueLength ETV
vector 36 HybridMeter_Net.PLC_BN.mac PLCTxQueueLengthALV ETV
vector 37 HybridMeter_Net.PLC_BN.mac PLCTxAttemptsBeforeTx ETV
vector 38 HybridMeter_Net.PLC_BN.mac PLCNumRegNodes ETV
vector 39 HybridMeter_Net.PLC_BN.mac Registering_EUI48 ETV
vector 40 HybridMeter_Net.PLC_SN[2].mac PLCnumberOfmacSCPMaxTxAttempts ETV
vector 41 HybridMeter_Net.PLC_SN[7].mac PLCTxAttemptsBeforeTx ETV
vector 42 HybridMeter_Net.PLC_SN[7].mac PLCAccessDelay ETV
vector 43 HybridMeter_Net.PLC_SN[6].mac PLCnumberOfmacSCPMaxTxAttempts ETV
vector 44 HybridMeter_Net.PLC_SN[0].mac PLCTxAttemptsBeforeTx ETV
vector 45 HybridMeter_Net.PLC_SN[0].mac PLCAccessDelay ETV
vector 46 HybridMeter_Net.PLC_SN[0].rflan.wlan.radio transmissionState:vector ETV
attr interpolationmode sample-hold
attr source transmissionStateChanged
attr title "Radio transmission state, vector"
vector 47 HybridMeter_Net.PLC_BN.rflan.wlan.radio receptionState:vector ETV
attr interpolationmode sample-hold
attr source receptionStateChanged
attr title "Radio reception state, vector"
vector 48 HybridMeter_Net.PLC_SN[8].rflan.wlan.radio receptionState:vector ETV
attr interpolationmode sample-hold
attr source receptionStateChanged
attr title "Radio reception state, vector"
vector 49 HybridMeter_Net.PLC_SN[6].mac PLCTxAttemptsBeforeTx ETV
vector 50 HybridMeter_Net.PLC_SN[6].mac PLCAccessDelay ETV
vector 51 HybridMeter_Net.PLC_SN[6].rflan.wlan.radio transmissionState:vector ETV
attr interpolationmode sample-hold
attr source transmissionStateChanged
attr title "Radio transmission state, vector"
vector 52 HybridMeter_Net.PLC_SN[2].mac PLCTxAttemptsBeforeTx ETV
vector 53 HybridMeter_Net.PLC_SN[2].mac PLCAccessDelay ETV
vector 54 HybridMeter_Net.PLC_SN[2].rflan.wlan.radio transmissionState:vector ETV
attr interpolationmode sample-hold
attr source transmissionStateChanged
attr title "Radio transmission state, vector"
vector 55 HybridMeter_Net.PLC_SN[0].mac PLCnumberOfmacSCPMaxTxAttempts ETV
vector 56 HybridMeter_Net.PLC_SN[5].mac I_sent_REG_REQ ETV
vector 57 HybridMeter_Net.PLC_SN[5].mac PLCTxAttemptsBeforeTx ETV
vector 58 HybridMeter_Net.PLC_SN[5].mac PLCAccessDelay ETV
vector 59 HybridMeter_Net.PLC_SN[1].mac PLCMessagesWithErrors ETV
vector 60 HybridMeter_Net.PLC_SN[0].mac PLCMessagesWithErrors ETV
vector 61 HybridMeter_Net.PLC_SN[5].mac PLCMessagesWithErrors ETV
vector 62 HybridMeter_Net.PLC_SN[6].mac PLCMessagesWithErrors ETV
vector 63 HybridMeter_Net.PLC_SN[7].mac PLCMessagesWithErrors ETV
vector 64 HybridMeter_Net.PLC_SN[8].mac PLCMessagesWithErrors ETV
vector 65 HybridMeter_Net.PLC_SN[4].rflan.wlan.radio transmissionState:vector ETV
attr interpolationmode sample-hold
attr source transmissionStateChanged
attr title "Radio transmission state, vector"
vector 66 HybridMeter_Net.PLC_SN[2].mac PLCMessagesWithErrors ETV
vector 67 HybridMeter_Net.PLC_SN[3].mac PLCMessagesWithErrors ETV
vector 68 HybridMeter_Net.PLC_SN[0].mac PLC_Number_of_self_disconnections ETV
vector 69 HybridMeter_Net.PLC_BN.mac PLC_Number_of_disconnections ETV
vector 70 HybridMeter_Net.PLC_BN.mac Unregistering_EUI48 ETV
vector 71 HybridMeter_Net.PLC_SN[8].mac PLC_Number_of_self_disconnections ETV
vector 72 HybridMeter_Net.PLC_SN[3].mac PLC_Number_of_self_disconnections ETV
0	56	5	0
0	332	5.064658929186	0.006577589817
0	521	5.126986839513	0.006060800956
0	768	5.21031212744	0.089386088883
0	828	5.222642601199	0.065666738154
0	892	5.248901488749	0.059692264842
0	1141	5.332377208882	0.008553442804
0	1397	5.442486453851	0.006226634745
0	1671	5.521142177073	0.006110560705
0	1802	5.542455021974	0.027423405606
0	1929	5.618241	0
0	2058	5.660501452079	0.008317858418
0	2240	5.723312960309	0.007308820938
0	2301	5.731971178255	0.015967038884
0	2423	6.131555727262	0.007312730872
0	2551	6.236482	0
0	2621	6.358570113433	0.006438343298
0	2749	6.854723	0
0	2826	7.472964	0
0	2896	7.985523781627	0.008497012164
0	3032	8.091205	0
0	3109	8.709446	0
0	3186	9.327687	0
0	3263	9.945928	0
0	3340	10.564169	0
0	3417	11.18241	0
0	3494	11.800651	0
0	3571	12.418892	0
0	3648	13.037133	0
0	3725	13.655374	0
0	3802	14.273615	0
0	3879	14.891856	0
0	3956	15.510097	0
0	4033	16.128338	0
0	4110	16.746579	0
0	4187	17.36482	0
0	4264	17.983061	0
0	4341	18.601302	0
0	4418	19.219543	0
0	4495	19.837784	0
0	4567	20.167128281377	15.010152418332
0	4716	20.226022784638	15.036813560731
0	5006	20.332281131628	15.00845736555
0	5072	20.356916385265	0.031206078477
0	5210	20.393974685897	0.068264379109
0	5344	20.418038405893	0.006135453965
0	5410	20.426765111078	0.01486215915
0	5549	20.456025	0
0	5695	20.48332752903	0.034679990793
0	5759	20.492464472044	0.043816933807
0	5950	20.533914601471	0.007622606978
0	6013	20.546878017584	0.020586023091
0	6202	21.074266	0
0	6279	21.692507	0
0	6356	22.310748	0
0	6433	22.928989	0
0	6510	23.54723	0
0	6587	24.165471	0
0	6664	24.783712	0
0	6742	25.401953	0
0	6811	25.417090634057	0.025207536219
0	6940	25.991711649266	0.00973325483
0	7068	26.020194	0
0	7145	26.638435	0
0	7222	27.256676	0
0	7299	27.874917	0
0	7376	28.493158	0
0	7453	29.111399	0
0	7530	29.72964	0
0	7607	30.347881	0
0	7684	30.966122	0
0	7761	31.584363	0
0	7838	32.202604	0
0	7915	32.820845	0
0	7992	33.439086	0
0	8069	34.057327	0
0	8146	34.675568	0
0	8218	35.198679805874	30.009470581967
0	8471	35.289190056266	0.007121784007
0	8540	35.293809	0
0	8665	35.312686311638	0.030618039379
0	8745	35.351061883262	0.006648216334
0	8851	35.91205	0
0	9299	36.530291	0
0	9376	37.148532	0
0	9453	37.766773	0
0	9530	38.385014	0
0	9607	39.003255	0
0	9684	39.621496	0
0	9761	40.239737	0
0	9838	40.857978	0
0	10036	41.476219	0
0	10113	42.09446	0
0	10190	42.712701	0
0	10267	43.330942	0
0	10344	43.949183	0
0	10421	44.567424	0
0	10498	45.185665	0
0	10575	45.803906	0
0	10652	46.422147	0
0	10729	47.040388	0
0	10806	47.658629	0
0	10883	48.27687	0
0	10960	48.895111	0
0	11037	49.513352	0
0	11116	50.131593	0
0	11311	50.749834	0
0	11503	50.787106336634	0.018901246929
0	11626	50.808799861293	0.040594771588
0	11686	50.817713291876	0.038695685734
0	11747	50.827372935879	0.048355329737
0	11876	51.368075	0
0	11953	51.986316	0
0	12030	52.604557	0
0	12107	53.222798	0
0	12184	53.841039	0
0	12261	54.45928	0
0	12338	55.077521	0
0	12415	55.695762	0
0	12492	56.314003	0
0	12569	56.932244	0
0	12646	57.550485	0
0	12723	58.168726	0
0	12800	58.786967	0
0	12877	59.405208	0
0	12954	60.023449	0
0	13031	60.64169	0
0	13108	61.259931	0
0	13185	61.878172	0
0	13262	62.496413	0
0	13339	63.114654	0
0	13416	63.732895	0
0	13493	64.351136	0
0	13570	64.969377	0
0	13649	65.587618	0
0	13855	66.205859	0
0	13932	66.8241	0
0	14043	67.442341	0
0	14120	68.060582	0
0	14197	68.678823	0
0	14274	69.297064	0
0	14351	69.915305	0
0	14428	70.533546	0
0	14505	71.151787	0
0	14699	71.770028	0
0	14776	72.388269	0
0	14853	73.00651	0
0	14930	73.624751	0
0	15007	74.242992	0
0	15084	74.861233	0
0	15161	75.479474	0
0	15238	76.097715	0
0	15316	76.715956	0
0	15393	77.334197	0
0	15470	77.952438	0
0	15547	78.570679	0
0	15624	79.18892	0
0	15701	79.807161	0
0	15773	80.13112275257	0.00687975618
0	16028	80.361603231557	0.009471461422
0	16156	80.425402	0
0	16233	81.043643	0
0	16310	81.661884	0
0	16380	81.987441265449	0.010414495986
0	16516	82.280125	0
0	16593	82.898366	0
0	16670	83.516607	0
0	16747	84.134848	0
0	16824	84.753089	0
0	16901	85.37133	0
0	16978	85.989571	0
0	17055	86.607812	0
0	17132	87.226053	0
0	17209	87.844294	0
0	17286	88.462535	0
0	17363	89.080776	0
0	17440	89.699017	0
0	17517	90.317258	0
0	17594	90.935499	0
0	17671	91.55374	0
0	17748	92.171981	0
0	17825	92.790222	0
0	17902	93.408463	0
0	17979	94.026704	0
0	18056	94.644945	0
0	18135	95.263186	0
0	18328	95.881427	0
0	18405	96.499668	0
0	18482	97.117909	0
0	18881	97.73615	0
0	18958	98.354391	0
0	19035	98.972632	0
0	19105	99.400825733635	0.008942635797
0	19241	99.590873	0
0	19311	99.991765627484	0.009787233048
0	19439	100.209114	0
0	19516	100.827355	0
0	19593	101.445596	0
0	19787	102.063837	0
0	19868	102.682078	0
0	19945	103.300319	0
0	20022	103.91856	0
0	20099	104.536801	0
0	20176	105.155042	0
0	20253	105.773283	0
0	20330	106.391524	0
0	20407	107.009765	0
0	20484	107.628006	0
0	20561	108.246247	0
0	20638	108.864488	0
0	20720	109.482729	0
0	20849	109.526518295334	0.009699307078
0	21030	109.588814309044	0.006741644375
0	21154	109.611663483745	0.029590819076
0	21226	110.10097	0
0	21412	110.609929570022	0.006057690123
0	21540	110.719211	0
0	21617	111.337452	0
0	21694	111.955693	0
0	21771	112.573934	0
0	21848	113.192175	0
0	21925	113.810416	0
0	22002	114.428657	0
0	22079	115.046898	0
0	22156	115.665139	0
0	22233	116.28338	0
0	22310	116.901621	0
0	22387	117.519862	0
0	22464	118.138103	0
0	22541	118.756344	0
0	22618	119.374585	0
0	22695	119.992826	0
0	22772	120.611067	0
0	22849	121.229308	0
0	22926	121.847549	0
0	23003	122.46579	0
0	23080	123.084031	0
0	23157	123.702272	0
0	23234	124.320513	0
0	23311	124.938754	0
0	23390	125.556995	0
0	23596	126.175236	0
0	23673	126.793477	0
0	23750	127.411718	0
0	23827	128.029959	0
0	24186	128.6482	0
0	24263	129.266441	0
0	24340	129.884682	0
0	24417	130.502923	0
0	24494	131.121164	0
0	24571	131.739405	0
0	24765	132.357646	0
0	24842	132.975887	0
0	24923	133.594128	0
0	25000	134.212369	0
0	25077	134.83061	0
0	25154	135.448851	0
0	25231	136.067092	0
0	25308	136.685333	0
0	25385	137.303574	0
0	25462	137.921815	0
0	25539	138.540056	0
0	25616	139.158297	0
0	25693	139.776538	0
0	25772	140.394779	0
0	25965	141.01302	0
0	26042	141.631261	0
0	26119	142.249502	0
0	26196	142.867743	0
0	26273	143.485984	0
0	26350	144.104225	0
0	26427	144.722466	0
0	26504	145.340707	0
0	26581	145.958948	0
0	26658	146.577189	0
0	26735	147.19543	0
0	26812	147.813671	0
0	26889	148.431912	0
0	26966	149.050153	0
0	27043	149.668394	0
0	27120	150.286635	0
0	27197	150.904876	0
0	27274	151.523117	0
0	27351	152.141358	0
0	27428	152.759599	0
0	27505	153.37784	0
0	27582	153.996081	0
0	27652	154.134554979233	0.010311982843
0	27773	154.359858287999	0.007726517864
0	27901	154.614322	0
0	27980	155.232563	0
0	28186	155.850804	0
0	28256	155.983096998444	0.006070228981
0	28392	156.469045	0
0	28469	157.087286	0
0	28546	157.705527	0
0	28623	158.323768	0
0	28983	158.942009	0
0	29060	159.56025	0
0	29137	160.178491	0
0	29214	160.796732	0
0	29291	161.414973	0
0	29368	162.033214	0
0	29562	162.651455	0
0	29639	163.269696	0
0	29720	163.887937	0
0	29797	164.506178	0
0	29874	165.124419	0
0	29951	165.74266	0
0	30028	166.360901	0
0	30105	166.979142	0
0	30182	167.597383	0
0	30259	168.215624	0
0	30336	168.833865	0
0	30413	169.452106	0
0	30490	170.070347	0
0	30569	170.688588	0
1	104	5.006729271968	7
1	1977	5.624970271968	7
1	2599	6.243211271968	7
1	2797	6.861452271968	7
1	2874	7.479693271968	7
1	3080	8.097934271968	7
1	3157	8.716175271968	7
1	3234	9.334416271968	7
1	3311	9.952657271968	7
1	3388	10.570898271968	7
1	3465	11.189139271968	7
1	3542	11.807380271968	7
1	3619	12.425621271968	7
1	3696	13.043862271968	7
1	3773	13.662103271968	7
1	3850	14.280344271968	7
1	3927	14.898585271968	7
1	4004	15.516826271968	7
1	4081	16.135067271968	7
1	4158	16.753308271968	7
1	4235	17.371549271968	7
1	4312	17.989790271968	7
1	4389	18.608031271968	7
1	4466	19.226272271968	7
1	4543	19.844513271968	7
1	5598	20.462754271968	7
1	6250	21.080995271968	7
1	6327	21.699236271968	7
1	6404	22.317477271968	7
1	6481	22.935718271968	7
1	6558	23.553959271968	7
1	6635	24.172200271968	7
1	6712	24.790441271968	7
1	6790	25.408682271968	7
1	7116	26.026923271968	7
1	7193	26.645164271968	7
1	7270	27.263405271968	7
1	7347	27.881646271968	7
1	7424	28.499887271968	7
1	7501	29.118128271968	7
1	7578	29.736369271968	7
1	7655	30.354610271968	7
1	7732	30.972851271968	7
1	7809	31.591092271968	7
1	7886	32.209333271968	7
1	7963	32.827574271968	7
1	8040	33.445815271968	7
1	8117	34.064056271968	7
1	8194	34.682297271968	7
1	8588	35.300538271968	7
1	8899	35.918779271968	7
1	9347	36.537020271968	7
1	9424	37.155261271968	7
1	9501	37.773502271968	7
1	9578	38.391743271968	7
1	9655	39.009984271968	7
1	9732	39.628225271968	7
1	9809	40.246466271968	7
1	9886	40.864707271968	7
1	10084	41.482948271968	7
1	10161	42.101189271968	7
1	10238	42.719430271968	7
1	10315	43.337671271968	7
1	10392	43.955912271968	7
1	10469	44.574153271968	7
1	10546	45.192394271968	7
1	10623	45.810635271968	7
1	10700	46.428876271968	7
1	10777	47.047117271968	7
1	10854	47.665358271968	7
1	10931	48.283599271968	7
1	11008	48.901840271968	7
1	11085	49.520081271968	7
1	11164	50.138322271968	7
1	11359	50.756563271968	7
1	11924	51.374804271968	7
1	12001	51.993045271968	7
1	12078	52.611286271968	7
1	12155	53.229527271968	7
1	12232	53.847768271968	7
1	12309	54.466009271968	7
1	12386	55.084250271968	7
1	12463	55.702491271968	7
1	12540	56.320732271968	7
1	12617	56.938973271968	7
1	12694	57.557214271968	7
1	12771	58.175455271968	7
1	12848	58.793696271968	7
1	12925	59.411937271968	7
1	13002	60.030178271968	7
1	13079	60.648419271968	7
1	13156	61.266660271968	7
1	13233	61.884901271968	7
1	13310	62.503142271968	7
1	13387	63.121383271968	7
1	13464	63.739624271968	7
1	13541	64.357865271968	7
1	13618	64.976106271968	7
1	13697	65.594347271968	7
1	13903	66.212588271968	7
1	14025	66.830829271968	7
1	14091	67.449070271968	7
1	14168	68.067311271968	7
1	14245	68.685552271968	7
1	14322	69.303793271968	7
1	14399	69.922034271968	7
1	14476	70.540275271968	7
1	14553	71.158516271968	7
1	14747	71.776757271968	7
1	14824	72.394998271968	7
1	14901	73.013239271968	7
1	14978	73.631480271968	7
1	15055	74.249721271968	7
1	15132	74.867962271968	7
1	15209	75.486203271968	7
1	15286	76.104444271968	7
1	15364	76.722685271968	7
1	15441	77.340926271968	7
1	15518	77.959167271968	7
1	15595	78.577408271968	7
1	15672	79.195649271968	7
1	15749	79.813890271968	7
1	16204	80.432131271968	7
1	16281	81.050372271968	7
1	16358	81.668613271968	7
1	16564	82.286854271968	7
1	16641	82.905095271968	7
1	16718	83.523336271968	7
1	16795	84.141577271968	7
1	16872	84.759818271968	7
1	16949	85.378059271968	7
1	17026	85.996300271968	7
1	17103	86.614541271968	7
1	17180	87.232782271968	7
1	17257	87.851023271968	7
1	17334	88.469264271968	7
1	17411	89.087505271968	7
1	17488	89.705746271968	7
1	17565	90.323987271968	7
1	17642	90.942228271968	7
1	17719	91.560469271968	7
1	17796	92.178710271968	7
1	17873	92.796951271968	7
1	17950	93.415192271968	7
1	18027	94.033433271968	7
1	18104	94.651674271968	7
1	18183	95.269915271968	7
1	18376	95.888156271968	7
1	18453	96.506397271968	7
1	18530	97.124638271968	7
1	18929	97.742879271968	7
1	19006	98.361120271968	7
1	19083	98.979361271968	7
1	19289	99.597602271968	7
1	19487	100.215843271968	7
1	19564	100.834084271968	7
1	19641	101.452325271968	7
1	19835	102.070566271968	7
1	19916	102.688807271968	7
1	19993	103.307048271968	7
1	20070	103.925289271968	7
1	20147	104.543530271968	7
1	20224	105.161771271968	7
1	20301	105.780012271968	7
1	20378	106.398253271968	7
1	20455	107.016494271968	7
1	20532	107.634735271968	7
1	20609	108.252976271968	7
1	20686	108.871217271968	7
1	20768	109.489458271968	7
1	21274	110.107699271968	7
1	21588	110.725940271968	7
1	21665	111.344181271968	7
1	21742	111.962422271968	7
1	21819	112.580663271968	7
1	21896	113.198904271968	7
1	21973	113.817145271968	7
1	22050	114.435386271968	7
1	22127	115.053627271968	7
1	22204	115.671868271968	7
1	22281	116.290109271968	7
1	22358	116.908350271968	7
1	22435	117.526591271968	7
1	22512	118.144832271968	7
1	22589	118.763073271968	7
1	22666	119.381314271968	7
1	22743	119.999555271968	7
1	22820	120.617796271968	7
1	22897	121.236037271968	7
1	22974	121.854278271968	7
1	23051	122.472519271968	7
1	23128	123.090760271968	7
1	23205	123.709001271968	7
1	23282	124.327242271968	7
1	23359	124.945483271968	7
1	23438	125.563724271968	7
1	23644	126.181965271968	7
1	23721	126.800206271968	7
1	23798	127.418447271968	7
1	23875	128.036688271968	7
1	24234	128.654929271968	7
1	24311	129.273170271968	7
1	24388	129.891411271968	7
1	24465	130.509652271968	7
1	24542	131.127893271968	7
1	24619	131.746134271968	7
1	24813	132.364375271968	7
1	24890	132.982616271968	7
1	24971	133.600857271968	7
1	25048	134.219098271968	7
1	25125	134.837339271968	7
1	25202	135.455580271968	7
1	25279	136.073821271968	7
1	25356	136.692062271968	7
1	25433	137.310303271968	7
1	25510	137.928544271968	7
1	25587	138.546785271968	7
1	25664	139.165026271968	7
1	25741	139.783267271968	7
1	25820	140.401508271968	7
1	26013	141.019749271968	7
1	26090	141.637990271968	7
1	26167	142.256231271968	7
1	26244	142.874472271968	7
1	26321	143.492713271968	7
1	26398	144.110954271968	7
1	26475	144.729195271968	7
1	26552	145.347436271968	7
1	26629	145.965677271968	7
1	26706	146.583918271968	7
1	26783	147.202159271968	7
1	26860	147.820400271968	7
1	26937	148.438641271968	7
1	27014	149.056882271968	7
1	27091	149.675123271968	7
1	27168	150.293364271968	7
1	27245	150.911605271968	7
1	27322	151.529846271968	7
1	27399	152.148087271968	7
1	27476	152.766328271968	7
1	27553	153.384569271968	7
1	27630	154.002810271968	7
1	27949	154.621051271968	7
1	28028	155.239292271968	7
1	28234	155.857533271968	7
1	28440	156.475774271968	7
1	28517	157.094015271968	7
1	28594	157.712256271968	7
1	28671	158.330497271968	7
1	29031	158.948738271968	7
1	29108	159.566979271968	7
1	29185	160.185220271968	7
1	29262	160.803461271968	7
1	29339	161.421702271968	7
1	29416	162.039943271968	7
1	29610	162.658184271968	7
1	29687	163.276425271968	7
1	29768	163.894666271968	7
1	29845	164.512907271968	7
1	29922	165.131148271968	7
1	29999	165.749389271968	7
1	30076	166.367630271968	7
1	30153	166.985871271968	7
1	30230	167.604112271968	7
1	30307	168.222353271968	7
1	30384	168.840594271968	7
1	30461	169.458835271968	7
1	30538	170.077076271968	7
1	30617	170.695317271968	7
2	105	5.006729271968	2
2	1978	5.624970271968	2
2	2600	6.243211271968	2
2	2798	6.861452271968	2
2	2875	7.479693271968	2
2	3081	8.097934271968	2
2	3158	8.716175271968	2
2	3235	9.334416271968	2
2	3312	9.952657271968	2
2	3389	10.570898271968	2
2	3466	11.189139271968	2
2	3543	11.807380271968	2
2	3620	12.425621271968	2
2	3697	13.043862271968	2
2	3774	13.662103271968	2
2	3851	14.280344271968	2
2	3928	14.898585271968	2
2	4005	15.516826271968	2
2	4082	16.135067271968	2
2	4159	16.753308271968	2
2	4236	17.371549271968	2
2	4313	17.989790271968	2
2	4390	18.608031271968	2
2	4467	19.226272271968	2
2	4544	19.844513271968	2
2	5599	20.462754271968	2
2	6251	21.080995271968	2
2	6328	21.699236271968	2
2	6405	22.317477271968	2
2	6482	22.935718271968	2
2	6559	23.553959271968	2
2	6636	24.172200271968	2
2	6713	24.790441271968	2
2	6791	25.408682271968	2
2	7117	26.026923271968	2
2	7194	26.645164271968	2
2	7271	27.263405271968	2
2	7348	27.881646271968	2
2	7425	28.499887271968	2
2	7502	29.118128271968	2
2	7579	29.736369271968	2
2	7656	30.354610271968	2
2	7733	30.972851271968	2
2	7810	31.591092271968	2
2	7887	32.209333271968	2
2	7964	32.827574271968	2
2	8041	33.445815271968	2
2	8118	34.064056271968	2
2	8195	34.682297271968	2
2	8589	35.300538271968	2
2	8900	35.918779271968	2
2	9348	36.537020271968	2
2	9425	37.155261271968	2
2	9502	37.773502271968	2
2	9579	38.391743271968	2
2	9656	39.009984271968	2
2	9733	39.628225271968	2
2	9810	40.246466271968	2
2	9887	40.864707271968	2
2	10085	41.482948271968	2
2	10162	42.101189271968	2
2	10239	42.719430271968	2
2	10316	43.337671271968	2
2	10393	43.955912271968	2
2	10470	44.574153271968	2
2	10547	45.192394271968	2
2	10624	45.810635271968	2
2	10701	46.428876271968	2
2	10778	47.047117271968	2
2	10855	47.665358271968	2
2	10932	48.283599271968	2
2	11009	48.901840271968	2
2	11086	49.520081271968	2
2	11165	50.138322271968	2
2	11360	50.756563271968	2
2	11925	51.374804271968	2
2	12002	51.993045271968	2
2	12079	52.611286271968	2
2	12156	53.229527271968	2
2	12233	53.847768271968	2
2	12310	54.466009271968	2
2	12387	55.084250271968	2
2	12464	55.702491271968	2
2	12541	56.320732271968	2
2	12618	56.938973271968	2
2	12695	57.557214271968	2
2	12772	58.175455271968	2
2	12849	58.793696271968	2
2	12926	59.411937271968	2
2	13003	60.030178271968	2
2	13080	60.648419271968	2
2	13157	61.266660271968	2
2	13234	61.884901271968	2
2	13311	62.503142271968	2
2	13388	63.121383271968	2
2	13465	63.739624271968	2
2	13542	64.357865271968	2
2	13619	64.976106271968	2
2	13698	65.594347271968	2
2	13904	66.212588271968	2
2	14026	66.830829271968	2
2	14092	67.449070271968	2
2	14169	68.067311271968	2
2	14246	68.685552271968	2
2	14323	69.303793271968	2
2	14400	69.922034271968	2
2	14477	70.540275271968	2
2	14554	71.158516271968	2
2	14748	71.776757271968	2
2	14825	72.394998271968	2
2	14902	73.013239271968	2
2	14979	73.631480271968	2
2	15056	74.249721271968	2
2	15133	74.867962271968	2
2	15210	75.486203271968	2
2	15287	76.104444271968	2
2	15365	76.722685271968	2
2	15442	77.340926271968	2
2	15519	77.959167271968	2
2	15596	78.577408271968	2
2	15673	79.195649271968	2
2	15750	79.813890271968	2
2	16205	80.432131271968	2
2	16282	81.050372271968	2
2	16359	81.668613271968	2
2	16565	82.286854271968	2
2	16642	82.905095271968	2
2	16719	83.523336271968	2
2	16796	84.141577271968	2
2	16873	84.759818271968	2
2	16950	85.378059271968	2
2	17027	85.996300271968	2
2	17104	86.614541271968	2
2	17181	87.232782271968	2
2	17258	87.851023271968	2
2	17335	88.469264271968	2
2	17412	89.087505271968	2
2	17489	89.705746271968	2
2	17566	90.323987271968	2
2	17643	90.942228271968	2
2	17720	91.560469271968	2
2	17797	92.178710271968	2
2	17874	92.796951271968	2
2	17951	93.415192271968	2
2	18028	94.033433271968	2
2	18105	94.651674271968	2
2	18184	95.269915271968	2
2	18377	95.888156271968	2
2	18454	96.506397271968	2
2	18531	97.124638271968	2
2	18930	97.742879271968	2
2	19007	98.361120271968	2
2	19084	98.979361271968	2
2	19290	99.597602271968	2
2	19488	100.215843271968	2
2	19565	100.834084271968	2
2	19642	101.452325271968	2
2	19836	102.070566271968	2
2	19917	102.688807271968	2
2	19994	103.307048271968	2
2	20071	103.925289271968	2
2	20148	104.543530271968	2
2	20225	105.161771271968	2
2	20302	105.780012271968	2
2	20379	106.398253271968	2
2	20456	107.016494271968	2
2	20533	107.634735271968	2
2	20610	108.252976271968	2
2	20687	108.871217271968	2
2	20769	109.489458271968	2
2	21275	110.107699271968	2
2	21589	110.725940271968	2
2	21666	111.344181271968	2
2	21743	111.962422271968	2
2	21820	112.580663271968	2
2	21897	113.198904271968	2
2	21974	113.817145271968	2
2	22051	114.435386271968	2
2	22128	115.053627271968	2
2	22205	115.671868271968	2
2	22282	116.290109271968	2
2	22359	116.908350271968	2
2	22436	117.526591271968	2
2	22513	118.144832271968	2
2	22590	118.763073271968	2
2	22667	119.381314271968	2
2	22744	119.999555271968	2
2	22821	120.617796271968	2
2	22898	121.236037271968	2
2	22975	121.854278271968	2
2	23052	122.472519271968	2
2	23129	123.090760271968	2
2	23206	123.709001271968	2
2	23283	124.327242271968	2
2	23360	124.945483271968	2
2	23439	125.563724271968	2
2	23645	126.181965271968	2
2	23722	126.800206271968	2
2	23799	127.418447271968	2
2	23876	128.036688271968	2
2	24235	128.654929271968	2
2	24312	129.273170271968	2
2	24389	129.891411271968	2
2	24466	130.509652271968	2
2	24543	131.127893271968	2
2	24620	131.746134271968	2
2	24814	132.364375271968	2
2	24891	132.982616271968	2
2	24972	133.600857271968	2
2	25049	134.219098271968	2
2	25126	134.837339271968	2
2	25203	135.455580271968	2
2	25280	136.073821271968	2
2	25357	136.692062271968	2
2	25434	137.310303271968	2
2	25511	137.928544271968	2
2	25588	138.546785271968	2
2	25665	139.165026271968	2
2	25742	139.783267271968	2
2	25821	140.401508271968	2
2	26014	141.019749271968	2
2	26091	141.637990271968	2
2	26168	142.256231271968	2
2	26245	142.874472271968	2
2	26322	143.492713271968	2
2	26399	144.110954271968	2
2	26476	144.729195271968	2
2	26553	145.347436271968	2
2	26630	145.965677271968	2
2	26707	146.583918271968	2
2	26784	147.202159271968	2
2	26861	147.820400271968	2
2	26938	148.438641271968	2
2	27015	149.056882271968	2
2	27092	149.675123271968	2
2	27169	150.293364271968	2
2	27246	150.911605271968	2
2	27323	151.529846271968	2
2	27400	152.148087271968	2
2	27477	152.766328271968	2
2	27554	153.384569271968	2
2	27631	154.002810271968	2
2	27950	154.621051271968	2
2	28029	155.239292271968	2
2	28235	155.857533271968	2
2	28441	156.475774271968	2
2	28518	157.094015271968	2
2	28595	157.712256271968	2
2	28672	158.330497271968	2
2	29032	158.948738271968	2
2	29109	159.566979271968	2
2	29186	160.185220271968	2
2	29263	160.803461271968	2
2	29340	161.421702271968	2
2	29417	162.039943271968	2
2	29611	162.658184271968	2
2	29688	163.276425271968	2
2	29769	163.894666271968	2
2	29846	164.512907271968	2
2	29923	165.131148271968	2
2	30000	165.749389271968	2
2	30077	166.367630271968	2
2	30154	166.985871271968	2
2	30231	167.604112271968	2
2	30308	168.222353271968	2
2	30385	168.840594271968	2
2	30462	169.458835271968	2
2	30539	170.077076271968	2
2	30618	170.695317271968	2
3	107	5.006729271968	2
3	20771	109.489458271968	2
4	108	5.006729571968	8
4	1981	5.624970571968	8
4	2603	6.243211571968	8
4	2801	6.861452571968	8
4	2878	7.479693571968	8
4	3084	8.097934571968	8
4	3161	8.716175571968	8
4	3238	9.334416571968	8
4	3315	9.952657571968	8
4	3392	10.570898571968	8
4	3469	11.189139571968	8
4	3546	11.807380571968	8
4	3623	12.425621571968	8
4	3700	13.043862571968	8
4	3777	13.662103571968	8
4	3854	14.280344571968	8
4	3931	14.898585571968	8
4	4008	15.516826571968	8
4	4085	16.135067571968	8
4	4162	16.753308571968	8
4	4239	17.371549571968	8
4	4316	17.989790571968	8
4	4393	18.608031571968	8
4	4470	19.226272571968	8
4	4547	19.844513571968	8
4	5602	20.462754571968	8
4	6254	21.080995571968	8
4	6331	21.699236571968	8
4	6408	22.317477571968	8
4	6485	22.935718571968	8
4	6562	23.553959571968	8
4	6639	24.172200571968	8
4	6716	24.790441571968	8
4	6794	25.408682571968	8
4	7120	26.026923571968	8
4	7197	26.645164571968	8
4	7274	27.263405571968	8
4	7351	27.881646571968	8
4	7428	28.499887571968	8
4	7505	29.118128571968	8
4	7582	29.736369571968	8
4	7659	30.354610571968	8
4	7736	30.972851571968	8
4	7813	31.591092571968	8
4	7890	32.209333571968	8
4	7967	32.827574571968	8
4	8044	33.445815571968	8
4	8121	34.064056571968	8
4	8198	34.682297571968	8
4	8592	35.300538571968	8
4	8903	35.918779571968	8
4	9351	36.537020571968	8
4	9428	37.155261571968	8
4	9505	37.773502571968	8
4	9582	38.391743571968	8
4	9659	39.009984571968	8
4	9736	39.628225571968	8
4	9813	40.246466571968	8
4	9890	40.864707571968	8
4	10088	41.482948571968	8
4	10165	42.101189571968	8
4	10242	42.719430571968	8
4	10319	43.337671571968	8
4	10396	43.955912571968	8
4	10473	44.574153571968	8
4	10550	45.192394571968	8
4	10627	45.810635571968	8
4	10704	46.428876571968	8
4	10781	47.047117571968	8
4	10858	47.665358571968	8
4	10935	48.283599571968	8
4	11012	48.901840571968	8
4	11089	49.520081571968	8
4	11168	50.138322571968	8
4	11363	50.756563571968	8
4	11928	51.374804571968	8
4	12005	51.993045571968	8
4	12082	52.611286571968	8
4	12159	53.229527571968	8
4	12236	53.847768571968	8
4	12313	54.466009571968	8
4	12390	55.084250571968	8
4	12467	55.702491571968	8
4	12544	56.320732571968	8
4	12621	56.938973571968	8
4	12698	57.557214571968	8
4	12775	58.175455571968	8
4	12852	58.793696571968	8
4	12929	59.411937571968	8
4	13006	60.030178571968	8
4	13083	60.648419571968	8
4	13160	61.266660571968	8
4	13237	61.884901571968	8
4	13314	62.503142571968	8
4	13391	63.121383571968	8
4	13468	63.739624571968	8
4	13545	64.357865571968	8
4	13622	64.976106571968	8
4	13701	65.594347571968	8
4	13907	66.212588571968	8
4	14095	67.449070571968	8
4	14172	68.067311571968	8
4	14249	68.685552571968	8
4	14326	69.303793571968	8
4	14403	69.922034571968	8
4	14480	70.540275571968	8
4	14557	71.158516571968	8
4	14751	71.776757571968	8
4	14828	72.394998571968	8
4	14905	73.013239571968	8
4	14982	73.631480571968	8
4	15059	74.249721571968	8
4	15136	74.867962571968	8
4	15213	75.486203571968	8
4	15290	76.104444571968	8
4	15368	76.722685571968	8
4	15445	77.340926571968	8
4	15522	77.959167571968	8
4	15599	78.577408571968	8
4	15676	79.195649571968	8
4	15753	79.813890571968	8
4	16208	80.432131571968	8
4	16285	81.050372571968	8
4	16362	81.668613571968	8
4	16568	82.286854571968	8
4	16645	82.905095571968	8
4	16722	83.523336571968	8
4	16799	84.141577571968	8
4	16876	84.759818571968	8
4	16953	85.378059571968	8
4	17030	85.996300571968	8
4	17107	86.614541571968	8
4	17184	87.232782571968	8
4	17261	87.851023571968	8
4	17338	88.469264571968	8
4	17415	89.087505571968	8
4	17492	89.705746571968	8
4	17569	90.323987571968	8
4	17646	90.942228571968	8
4	17723	91.560469571968	8
4	17800	92.178710571968	8
4	17877	92.796951571968	8
4	17954	93.415192571968	8
4	18031	94.033433571968	8
4	18108	94.651674571968	8
4	18187	95.269915571968	8
4	18380	95.888156571968	8
4	18457	96.506397571968	8
4	18534	97.124638571968	8
4	18933	97.742879571968	8
4	19010	98.361120571968	8
4	19087	98.979361571968	8
4	19293	99.597602571968	8
4	19491	100.215843571968	8
4	19568	100.834084571968	8
4	19645	101.452325571968	8
4	19839	102.070566571968	8
4	19920	102.688807571968	8
4	19997	103.307048571968	8
4	20074	103.925289571968	8
4	20151	104.543530571968	8
4	20228	105.161771571968	8
4	20305	105.780012571968	8
4	20382	106.398253571968	8
4	20459	107.016494571968	8
4	20536	107.634735571968	8
4	20613	108.252976571968	8
4	20690	108.871217571968	8
4	20772	109.489458571968	8
4	21278	110.107699571968	8
4	21592	110.725940571968	8
4	21669	111.344181571968	8
4	21746	111.962422571968	8
4	21823	112.580663571968	8
4	21900	113.198904571968	8
4	21977	113.817145571968	8
4	22054	114.435386571968	8
4	22131	115.053627571968	8
4	22208	115.671868571968	8
4	22285	116.290109571968	8
4	22362	116.908350571968	8
4	22439	117.526591571968	8
4	22516	118.144832571968	8
4	22593	118.763073571968	8
4	22670	119.381314571968	8
4	22747	119.999555571968	8
4	22824	120.617796571968	8
4	22901	121.236037571968	8
4	22978	121.854278571968	8
4	23055	122.472519571968	8
4	23132	123.090760571968	8
4	23209	123.709001571968	8
4	23286	124.327242571968	8
4	23363	124.945483571968	8
4	23442	125.563724571968	8
4	23648	126.181965571968	8
4	23725	126.800206571968	8
4	23802	127.418447571968	8
4	23879	128.036688571968	8
4	24238	128.654929571968	8
4	24315	129.273170571968	8
4	24392	129.891411571968	8
4	24469	130.509652571968	8
4	24546	131.127893571968	8
4	24623	131.746134571968	8
4	24817	132.364375571968	8
4	24894	132.982616571968	8
4	24975	133.600857571968	8
4	25052	134.219098571968	8
4	25129	134.837339571968	8
4	25206	135.455580571968	8
4	25283	136.073821571968	8
4	25360	136.692062571968	8
4	25437	137.310303571968	8
4	25514	137.928544571968	8
4	25591	138.546785571968	8
4	25668	139.165026571968	8
4	25745	139.783267571968	8
4	25824	140.401508571968	8
4	26017	141.019749571968	8
4	26094	141.637990571968	8
4	26171	142.256231571968	8
4	26248	142.874472571968	8
4	26325	143.492713571968	8
4	26402	144.110954571968	8
4	26479	144.729195571968	8
4	26556	145.347436571968	8
4	26633	145.965677571968	8
4	26710	146.583918571968	8
4	26787	147.202159571968	8
4	26864	147.820400571968	8
4	26941	148.438641571968	8
4	27018	149.056882571968	8
4	27095	149.675123571968	8
4	27172	150.293364571968	8
4	27249	150.911605571968	8
4	27326	151.529846571968	8
4	27403	152.148087571968	8
4	27480	152.766328571968	8
4	27557	153.384569571968	8
4	27634	154.002810571968	8
4	27953	154.621051571968	8
4	28032	155.239292571968	8
4	28238	155.857533571968	8
4	28444	156.475774571968	8
4	28521	157.094015571968	8
4	28598	157.712256571968	8
4	28675	158.330497571968	8
4	29035	158.948738571968	8
4	29112	159.566979571968	8
4	29189	160.185220571968	8
4	29266	160.803461571968	8
4	29343	161.421702571968	8
4	29420	162.039943571968	8
4	29614	162.658184571968	8
4	29691	163.276425571968	8
4	29772	163.894666571968	8
4	29849	164.512907571968	8
4	29926	165.131148571968	8
4	30003	165.749389571968	8
4	30080	166.367630571968	8
4	30157	166.985871571968	8
4	30234	167.604112571968	8
4	30311	168.222353571968	8
4	30388	168.840594571968	8
4	30465	169.458835571968	8
4	30542	170.077076571968	8
4	30621	170.695317571968	8
5	109	5.006729571968	3
5	1982	5.624970571968	3
5	2604	6.243211571968	3
5	2802	6.861452571968	3
5	2879	7.479693571968	3
5	3085	8.097934571968	3
5	3162	8.716175571968	3
5	3239	9.334416571968	3
5	3316	9.952657571968	3
5	3393	10.570898571968	3
5	3470	11.189139571968	3
5	3547	11.807380571968	3
5	3624	12.425621571968	3
5	3701	13.043862571968	3
5	3778	13.662103571968	3
5	3855	14.280344571968	3
5	3932	14.898585571968	3
5	4009	15.516826571968	3
5	4086	16.135067571968	3
5	4163	16.753308571968	3
5	4240	17.371549571968	3
5	4317	17.989790571968	3
5	4394	18.608031571968	3
5	4471	19.226272571968	3
5	4548	19.844513571968	3
5	5603	20.462754571968	3
5	6255	21.080995571968	3
5	6332	21.699236571968	3
5	6409	22.317477571968	3
5	6486	22.935718571968	3
5	6563	23.553959571968	3
5	6640	24.172200571968	3
5	6717	24.790441571968	3
5	6795	25.408682571968	3
5	7121	26.026923571968	3
5	7198	26.645164571968	3
5	7275	27.263405571968	3
5	7352	27.881646571968	3
5	7429	28.499887571968	3
5	7506	29.118128571968	3
5	7583	29.736369571968	3
5	7660	30.354610571968	3
5	7737	30.972851571968	3
5	7814	31.591092571968	3
5	7891	32.209333571968	3
5	7968	32.827574571968	3
5	8045	33.445815571968	3
5	8122	34.064056571968	3
5	8199	34.682297571968	3
5	8593	35.300538571968	3
5	8904	35.918779571968	3
5	9352	36.537020571968	3
5	9429	37.155261571968	3
5	9506	37.773502571968	3
5	9583	38.391743571968	3
5	9660	39.009984571968	3
5	9737	39.628225571968	3
5	9814	40.246466571968	3
5	9891	40.864707571968	3
5	10089	41.482948571968	3
5	10166	42.101189571968	3
5	10243	42.719430571968	3
5	10320	43.337671571968	3
5	10397	43.955912571968	3
5	10474	44.574153571968	3
5	10551	45.192394571968	3
5	10628	45.810635571968	3
5	10705	46.428876571968	3
5	10782	47.047117571968	3
5	10859	47.665358571968	3
5	10936	48.283599571968	3
5	11013	48.901840571968	3
5	11090	49.520081571968	3
5	11169	50.138322571968	3
5	11364	50.756563571968	3
5	11929	51.374804571968	3
5	12006	51.993045571968	3
5	12083	52.611286571968	3
5	12160	53.229527571968	3
5	12237	53.847768571968	3
5	12314	54.466009571968	3
5	12391	55.084250571968	3
5	12468	55.702491571968	3
5	12545	56.320732571968	3
5	12622	56.938973571968	3
5	12699	57.557214571968	3
5	12776	58.175455571968	3
5	12853	58.793696571968	3
5	12930	59.411937571968	3
5	13007	60.030178571968	3
5	13084	60.648419571968	3
5	13161	61.266660571968	3
5	13238	61.884901571968	3
5	13315	62.503142571968	3
5	13392	63.121383571968	3
5	13469	63.739624571968	3
5	13546	64.357865571968	3
5	13623	64.976106571968	3
5	13702	65.594347571968	3
5	13908	66.212588571968	3
5	14096	67.449070571968	3
5	14173	68.067311571968	3
5	14250	68.685552571968	3
5	14327	69.303793571968	3
5	14404	69.922034571968	3
5	14481	70.540275571968	3
5	14558	71.158516571968	3
5	14752	71.776757571968	3
5	14829	72.394998571968	3
5	14906	73.013239571968	3
5	14983	73.631480571968	3
5	15060	74.249721571968	3
5	15137	74.867962571968	3
5	15214	75.486203571968	3
5	15291	76.104444571968	3
5	15369	76.722685571968	3
5	15446	77.340926571968	3
5	15523	77.959167571968	3
5	15600	78.577408571968	3
5	15677	79.195649571968	3
5	15754	79.813890571968	3
5	16209	80.432131571968	3
5	16286	81.050372571968	3
5	16363	81.668613571968	3
5	16569	82.286854571968	3
5	16646	82.905095571968	3
5	16723	83.523336571968	3
5	16800	84.141577571968	3
5	16877	84.759818571968	3
5	16954	85.378059571968	3
5	17031	85.996300571968	3
5	17108	86.614541571968	3
5	17185	87.232782571968	3
5	17262	87.851023571968	3
5	17339	88.469264571968	3
5	17416	89.087505571968	3
5	17493	89.705746571968	3
5	17570	90.323987571968	3
5	17647	90.942228571968	3
5	17724	91.560469571968	3
5	17801	92.178710571968	3
5	17878	92.796951571968	3
5	17955	93.415192571968	3
5	18032	94.033433571968	3
5	18109	94.651674571968	3
5	18188	95.269915571968	3
5	18381	95.888156571968	3
5	18458	96.506397571968	3
5	18535	97.124638571968	3
5	18934	97.742879571968	3
5	19011	98.361120571968	3
5	19088	98.979361571968	3
5	19294	99.597602571968	3
5	19492	100.215843571968	3
5	19569	100.834084571968	3
5	19646	101.452325571968	3
5	19840	102.070566571968	3
5	19921	102.688807571968	3
5	19998	103.307048571968	3
5	20075	103.925289571968	3
5	20152	104.543530571968	3
5	20229	105.161771571968	3
5	20306	105.780012571968	3
5	20383	106.398253571968	3
5	20460	107.016494571968	3
5	20537	107.634735571968	3
5	20614	108.252976571968	3
5	20691	108.871217571968	3
5	20773	109.489458571968	3
5	21279	110.107699571968	3
5	21593	110.725940571968	3
5	21670	111.344181571968	3
5	21747	111.962422571968	3
5	21824	112.580663571968	3
5	21901	113.198904571968	3
5	21978	113.817145571968	3
5	22055	114.435386571968	3
5	22132	115.053627571968	3
5	22209	115.671868571968	3
5	22286	116.290109571968	3
5	22363	116.908350571968	3
5	22440	117.526591571968	3
5	22517	118.144832571968	3
5	22594	118.763073571968	3
5	22671	119.381314571968	3
5	22748	119.999555571968	3
5	22825	120.617796571968	3
5	22902	121.236037571968	3
5	22979	121.854278571968	3
5	23056	122.472519571968	3
5	23133	123.090760571968	3
5	23210	123.709001571968	3
5	23287	124.327242571968	3
5	23364	124.945483571968	3
5	23443	125.563724571968	3
5	23649	126.181965571968	3
5	23726	126.800206571968	3
5	23803	127.418447571968	3
5	23880	128.036688571968	3
5	24239	128.654929571968	3
5	24316	129.273170571968	3
5	24393	129.891411571968	3
5	24470	130.509652571968	3
5	24547	131.127893571968	3
5	24624	131.746134571968	3
5	24818	132.364375571968	3
5	24895	132.982616571968	3
5	24976	133.600857571968	3
5	25053	134.219098571968	3
5	25130	134.837339571968	3
5	25207	135.455580571968	3
5	25284	136.073821571968	3
5	25361	136.692062571968	3
5	25438	137.310303571968	3
5	25515	137.928544571968	3
5	25592	138.546785571968	3
5	25669	139.165026571968	3
5	25746	139.783267571968	3
5	25825	140.401508571968	3
5	26018	141.019749571968	3
5	26095	141.637990571968	3
5	26172	142.256231571968	3
5	26249	142.874472571968	3
5	26326	143.492713571968	3
5	26403	144.110954571968	3
5	26480	144.729195571968	3
5	26557	145.347436571968	3
5	26634	145.965677571968	3
5	26711	146.583918571968	3
5	26788	147.202159571968	3
5	26865	147.820400571968	3
5	26942	148.438641571968	3
5	27019	149.056882571968	3
5	27096	149.675123571968	3
5	27173	150.293364571968	3
5	27250	150.911605571968	3
5	27327	151.529846571968	3
5	27404	152.148087571968	3
5	27481	152.766328571968	3
5	27558	153.384569571968	3
5	27635	154.002810571968	3
5	27954	154.621051571968	3
5	28033	155.239292571968	3
5	28239	155.857533571968	3
5	28445	156.475774571968	3
5	28522	157.094015571968	3
5	28599	157.712256571968	3
5	28676	158.330497571968	3
5	29036	158.948738571968	3
5	29113	159.566979571968	3
5	29190	160.185220571968	3
5	29267	160.803461571968	3
5	29344	161.421702571968	3
5	29421	162.039943571968	3
5	29615	162.658184571968	3
5	29692	163.276425571968	3
5	29773	163.894666571968	3
5	29850	164.512907571968	3
5	29927	165.131148571968	3
5	30004	165.749389571968	3
5	30081	166.367630571968	3
5	30158	166.985871571968	3
5	30235	167.604112571968	3
5	30312	168.222353571968	3
5	30389	168.840594571968	3
5	30466	169.458835571968	3
5	30543	170.077076571968	3
5	30622	170.695317571968	3
6	110	5.006729571968	8
7	111	5.006729571968	3
8	112	5.006729871968	9
8	1985	5.624970871968	9
8	2607	6.243211871968	9
8	2805	6.861452871968	9
8	2882	7.479693871968	9
8	3088	8.097934871968	9
8	3165	8.716175871968	9
8	3242	9.334416871968	9
8	3319	9.952657871968	9
8	3396	10.570898871968	9
8	3473	11.189139871968	9
8	3550	11.807380871968	9
8	3627	12.425621871968	9
8	3704	13.043862871968	9
8	3781	13.662103871968	9
8	3858	14.280344871968	9
8	3935	14.898585871968	9
8	4012	15.516826871968	9
8	4089	16.135067871968	9
8	4166	16.753308871968	9
8	4243	17.371549871968	9
8	4320	17.989790871968	9
8	4397	18.608031871968	9
8	4474	19.226272871968	9
8	4551	19.844513871968	9
8	5606	20.462754871968	9
8	6258	21.080995871968	9
8	6335	21.699236871968	9
8	6412	22.317477871968	9
8	6489	22.935718871968	9
8	6566	23.553959871968	9
8	6643	24.172200871968	9
8	6720	24.790441871968	9
8	6798	25.408682871968	9
8	7124	26.026923871968	9
8	7201	26.645164871968	9
8	7278	27.263405871968	9
8	7355	27.881646871968	9
8	7432	28.499887871968	9
8	7509	29.118128871968	9
8	7586	29.736369871968	9
8	7663	30.354610871968	9
8	7740	30.972851871968	9
8	7817	31.591092871968	9
8	7894	32.209333871968	9
8	7971	32.827574871968	9
8	8048	33.445815871968	9
8	8125	34.064056871968	9
8	8202	34.682297871968	9
8	8596	35.300538871968	9
8	8907	35.918779871968	9
8	9355	36.537020871968	9
8	9432	37.155261871968	9
8	9509	37.773502871968	9
8	9586	38.391743871968	9
8	9663	39.009984871968	9
8	9740	39.628225871968	9
8	9817	40.246466871968	9
8	9894	40.864707871968	9
8	10092	41.482948871968	9
8	10169	42.101189871968	9
8	10246	42.719430871968	9
8	10323	43.337671871968	9
8	10400	43.955912871968	9
8	10477	44.574153871968	9
8	10554	45.192394871968	9
8	10631	45.810635871968	9
8	10708	46.428876871968	9
8	10785	47.047117871968	9
8	10862	47.665358871968	9
8	10939	48.283599871968	9
8	11016	48.901840871968	9
8	11093	49.520081871968	9
8	11172	50.138322871968	9
8	11367	50.756563871968	9
8	11932	51.374804871968	9
8	12009	51.993045871968	9
8	12086	52.611286871968	9
8	12163	53.229527871968	9
8	12240	53.847768871968	9
8	12317	54.466009871968	9
8	12394	55.084250871968	9
8	12471	55.702491871968	9
8	12548	56.320732871968	9
8	12625	56.938973871968	9
8	12702	57.557214871968	9
8	12779	58.175455871968	9
8	12856	58.793696871968	9
8	12933	59.411937871968	9
8	13010	60.030178871968	9
8	13087	60.648419871968	9
8	13164	61.266660871968	9
8	13241	61.884901871968	9
8	13318	62.503142871968	9
8	13395	63.121383871968	9
8	13472	63.739624871968	9
8	13549	64.357865871968	9
8	13626	64.976106871968	9
8	13705	65.594347871968	9
8	13911	66.212588871968	9
8	14099	67.449070871968	9
8	14176	68.067311871968	9
8	14253	68.685552871968	9
8	14330	69.303793871968	9
8	14407	69.922034871968	9
8	14484	70.540275871968	9
8	14561	71.158516871968	9
8	14755	71.776757871968	9
8	14832	72.394998871968	9
8	14909	73.013239871968	9
8	14986	73.631480871968	9
8	15063	74.249721871968	9
8	15140	74.867962871968	9
8	15217	75.486203871968	9
8	15294	76.104444871968	9
8	15372	76.722685871968	9
8	15449	77.340926871968	9
8	15526	77.959167871968	9
8	15603	78.577408871968	9
8	15680	79.195649871968	9
8	15757	79.813890871968	9
8	16212	80.432131871968	9
8	16289	81.050372871968	9
8	16366	81.668613871968	9
8	16572	82.286854871968	9
8	16649	82.905095871968	9
8	16726	83.523336871968	9
8	16803	84.141577871968	9
8	16880	84.759818871968	9
8	16957	85.378059871968	9
8	17034	85.996300871968	9
8	17111	86.614541871968	9
8	17188	87.232782871968	9
8	17265	87.851023871968	9
8	17342	88.469264871968	9
8	17419	89.087505871968	9
8	17496	89.705746871968	9
8	17573	90.323987871968	9
8	17650	90.942228871968	9
8	17727	91.560469871968	9
8	17804	92.178710871968	9
8	17881	92.796951871968	9
8	17958	93.415192871968	9
8	18035	94.033433871968	9
8	18112	94.651674871968	9
8	18191	95.269915871968	9
8	18384	95.888156871968	9
8	18461	96.506397871968	9
8	18538	97.124638871968	9
8	18937	97.742879871968	9
8	19014	98.361120871968	9
8	19091	98.979361871968	9
8	19297	99.597602871968	9
8	19495	100.215843871968	9
8	19572	100.834084871968	9
8	19649	101.452325871968	9
8	19843	102.070566871968	9
8	19924	102.688807871968	9
8	20001	103.307048871968	9
8	20078	103.925289871968	9
8	20155	104.543530871968	9
8	20232	105.161771871968	9
8	20309	105.780012871968	9
8	20386	106.398253871968	9
8	20463	107.016494871968	9
8	20540	107.634735871968	9
8	20617	108.252976871968	9
8	20694	108.871217871968	9
8	20776	109.489458871968	9
8	21282	110.107699871968	9
8	21596	110.725940871968	9
8	21673	111.344181871968	9
8	21750	111.962422871968	9
8	21827	112.580663871968	9
8	21904	113.198904871968	9
8	21981	113.817145871968	9
8	22058	114.435386871968	9
8	22135	115.053627871968	9
8	22212	115.671868871968	9
8	22289	116.290109871968	9
8	22366	116.908350871968	9
8	22443	117.526591871968	9
8	22520	118.144832871968	9
8	22597	118.763073871968	9
8	22674	119.381314871968	9
8	22751	119.999555871968	9
8	22828	120.617796871968	9
8	22905	121.236037871968	9
8	22982	121.854278871968	9
8	23059	122.472519871968	9
8	23136	123.090760871968	9
8	23213	123.709001871968	9
8	23290	124.327242871968	9
8	23367	124.945483871968	9
8	23446	125.563724871968	9
8	23652	126.181965871968	9
8	23729	126.800206871968	9
8	23806	127.418447871968	9
8	23883	128.036688871968	9
8	24242	128.654929871968	9
8	24319	129.273170871968	9
8	24396	129.891411871968	9
8	24473	130.509652871968	9
8	24550	131.127893871968	9
8	24627	131.746134871968	9
8	24821	132.364375871968	9
8	24898	132.982616871968	9
8	24979	133.600857871968	9
8	25056	134.219098871968	9
8	25133	134.837339871968	9
8	25210	135.455580871968	9
8	25287	136.073821871968	9
8	25364	136.692062871968	9
8	25441	137.310303871968	9
8	25518	137.928544871968	9
8	25595	138.546785871968	9
8	25672	139.165026871968	9
8	25749	139.783267871968	9
8	25828	140.401508871968	9
8	26021	141.019749871968	9
8	26098	141.637990871968	9
8	26175	142.256231871968	9
8	26252	142.874472871968	9
8	26329	143.492713871968	9
8	26406	144.110954871968	9
8	26483	144.729195871968	9
8	26560	145.347436871968	9
8	26637	145.965677871968	9
8	26714	146.583918871968	9
8	26791	147.202159871968	9
8	26868	147.820400871968	9
8	26945	148.438641871968	9
8	27022	149.056882871968	9
8	27099	149.675123871968	9
8	27176	150.293364871968	9
8	27253	150.911605871968	9
8	27330	151.529846871968	9
8	27407	152.148087871968	9
8	27484	152.766328871968	9
8	27561	153.384569871968	9
8	27638	154.002810871968	9
8	27957	154.621051871968	9
8	28036	155.239292871968	9
8	28242	155.857533871968	9
8	28448	156.475774871968	9
8	28525	157.094015871968	9
8	28602	157.712256871968	9
8	28679	158.330497871968	9
8	29039	158.948738871968	9
8	29116	159.566979871968	9
8	29193	160.185220871968	9
8	29270	160.803461871968	9
8	29347	161.421702871968	9
8	29424	162.039943871968	9
8	29618	162.658184871968	9
8	29695	163.276425871968	9
8	29776	163.894666871968	9
8	29853	164.512907871968	9
8	29930	165.131148871968	9
8	30007	165.749389871968	9
8	30084	166.367630871968	9
8	30161	166.985871871968	9
8	30238	167.604112871968	9
8	30315	168.222353871968	9
8	30392	168.840594871968	9
8	30469	169.458835871968	9
8	30546	170.077076871968	9
8	30625	170.695317871968	9
9	113	5.006729871968	4
9	1986	5.624970871968	4
9	2608	6.243211871968	4
9	2806	6.861452871968	4
9	2883	7.479693871968	4
9	3089	8.097934871968	4
9	3166	8.716175871968	4
9	3243	9.334416871968	4
9	3320	9.952657871968	4
9	3397	10.570898871968	4
9	3474	11.189139871968	4
9	3551	11.807380871968	4
9	3628	12.425621871968	4
9	3705	13.043862871968	4
9	3782	13.662103871968	4
9	3859	14.280344871968	4
9	3936	14.898585871968	4
9	4013	15.516826871968	4
9	4090	16.135067871968	4
9	4167	16.753308871968	4
9	4244	17.371549871968	4
9	4321	17.989790871968	4
9	4398	18.608031871968	4
9	4475	19.226272871968	4
9	4552	19.844513871968	4
9	5607	20.462754871968	4
9	6259	21.080995871968	4
9	6336	21.699236871968	4
9	6413	22.317477871968	4
9	6490	22.935718871968	4
9	6567	23.553959871968	4
9	6644	24.172200871968	4
9	6721	24.790441871968	4
9	6799	25.408682871968	4
9	7125	26.026923871968	4
9	7202	26.645164871968	4
9	7279	27.263405871968	4
9	7356	27.881646871968	4
9	7433	28.499887871968	4
9	7510	29.118128871968	4
9	7587	29.736369871968	4
9	7664	30.354610871968	4
9	7741	30.972851871968	4
9	7818	31.591092871968	4
9	7895	32.209333871968	4
9	7972	32.827574871968	4
9	8049	33.445815871968	4
9	8126	34.064056871968	4
9	8203	34.682297871968	4
9	8597	35.300538871968	4
9	8908	35.918779871968	4
9	9356	36.537020871968	4
9	9433	37.155261871968	4
9	9510	37.773502871968	4
9	9587	38.391743871968	4
9	9664	39.009984871968	4
9	9741	39.628225871968	4
9	9818	40.246466871968	4
9	9895	40.864707871968	4
9	10093	41.482948871968	4
9	10170	42.101189871968	4
9	10247	42.719430871968	4
9	10324	43.337671871968	4
9	10401	43.955912871968	4
9	10478	44.574153871968	4
9	10555	45.192394871968	4
9	10632	45.810635871968	4
9	10709	46.428876871968	4
9	10786	47.047117871968	4
9	10863	47.665358871968	4
9	10940	48.283599871968	4
9	11017	48.901840871968	4
9	11094	49.520081871968	4
9	11173	50.138322871968	4
9	11368	50.756563871968	4
9	11933	51.374804871968	4
9	12010	51.993045871968	4
9	12087	52.611286871968	4
9	12164	53.229527871968	4
9	12241	53.847768871968	4
9	12318	54.466009871968	4
9	12395	55.084250871968	4
9	12472	55.702491871968	4
9	12549	56.320732871968	4
9	12626	56.938973871968	4
9	12703	57.557214871968	4
9	12780	58.175455871968	4
9	12857	58.793696871968	4
9	12934	59.411937871968	4
9	13011	60.030178871968	4
9	13088	60.648419871968	4
9	13165	61.266660871968	4
9	13242	61.884901871968	4
9	13319	62.503142871968	4
9	13396	63.121383871968	4
9	13473	63.739624871968	4
9	13550	64.357865871968	4
9	13627	64.976106871968	4
9	13706	65.594347871968	4
9	13912	66.212588871968	4
9	14100	67.449070871968	4
9	14177	68.067311871968	4
9	14254	68.685552871968	4
9	14331	69.303793871968	4
9	14408	69.922034871968	4
9	14485	70.540275871968	4
9	14562	71.158516871968	4
9	14756	71.776757871968	4
9	14833	72.394998871968	4
9	14910	73.013239871968	4
9	14987	73.631480871968	4
9	15064	74.249721871968	4
9	15141	74.867962871968	4
9	15218	75.486203871968	4
9	15295	76.104444871968	4
9	15373	76.722685871968	4
9	15450	77.340926871968	4
9	15527	77.959167871968	4
9	15604	78.577408871968	4
9	15681	79.195649871968	4
9	15758	79.813890871968	4
9	16213	80.432131871968	4
9	16290	81.050372871968	4
9	16367	81.668613871968	4
9	16573	82.286854871968	4
9	16650	82.905095871968	4
9	16727	83.523336871968	4
9	16804	84.141577871968	4
9	16881	84.759818871968	4
9	16958	85.378059871968	4
9	17035	85.996300871968	4
9	17112	86.614541871968	4
9	17189	87.232782871968	4
9	17266	87.851023871968	4
9	17343	88.469264871968	4
9	17420	89.087505871968	4
9	17497	89.705746871968	4
9	17574	90.323987871968	4
9	17651	90.942228871968	4
9	17728	91.560469871968	4
9	17805	92.178710871968	4
9	17882	92.796951871968	4
9	17959	93.415192871968	4
9	18036	94.033433871968	4
9	18113	94.651674871968	4
9	18192	95.269915871968	4
9	18385	95.888156871968	4
9	18462	96.506397871968	4
9	18539	97.124638871968	4
9	18938	97.742879871968	4
9	19015	98.361120871968	4
9	19092	98.979361871968	4
9	19298	99.597602871968	4
9	19496	100.215843871968	4
9	19573	100.834084871968	4
9	19650	101.452325871968	4
9	19844	102.070566871968	4
9	19925	102.688807871968	4
9	20002	103.307048871968	4
9	20079	103.925289871968	4
9	20156	104.543530871968	4
9	20233	105.161771871968	4
9	20310	105.780012871968	4
9	20387	106.398253871968	4
9	20464	107.016494871968	4
9	20541	107.634735871968	4
9	20618	108.252976871968	4
9	20695	108.871217871968	4
9	20777	109.489458871968	4
9	21283	110.107699871968	4
9	21597	110.725940871968	4
9	21674	111.344181871968	4
9	21751	111.962422871968	4
9	21828	112.580663871968	4
9	21905	113.198904871968	4
9	21982	113.817145871968	4
9	22059	114.435386871968	4
9	22136	115.053627871968	4
9	22213	115.671868871968	4
9	22290	116.290109871968	4
9	22367	116.908350871968	4
9	22444	117.526591871968	4
9	22521	118.144832871968	4
9	22598	118.763073871968	4
9	22675	119.381314871968	4
9	22752	119.999555871968	4
9	22829	120.617796871968	4
9	22906	121.236037871968	4
9	22983	121.854278871968	4
9	23060	122.472519871968	4
9	23137	123.090760871968	4
9	23214	123.709001871968	4
9	23291	124.327242871968	4
9	23368	124.945483871968	4
9	23447	125.563724871968	4
9	23653	126.181965871968	4
9	23730	126.800206871968	4
9	23807	127.418447871968	4
9	23884	128.036688871968	4
9	24243	128.654929871968	4
9	24320	129.273170871968	4
9	24397	129.891411871968	4
9	24474	130.509652871968	4
9	24551	131.127893871968	4
9	24628	131.746134871968	4
9	24822	132.364375871968	4
9	24899	132.982616871968	4
9	24980	133.600857871968	4
9	25057	134.219098871968	4
9	25134	134.837339871968	4
9	25211	135.455580871968	4
9	25288	136.073821871968	4
9	25365	136.692062871968	4
9	25442	137.310303871968	4
9	25519	137.928544871968	4
9	25596	138.546785871968	4
9	25673	139.165026871968	4
9	25750	139.783267871968	4
9	25829	140.401508871968	4
9	26022	141.019749871968	4
9	26099	141.637990871968	4
9	26176	142.256231871968	4
9	26253	142.874472871968	4
9	26330	143.492713871968	4
9	26407	144.110954871968	4
9	26484	144.729195871968	4
9	26561	145.347436871968	4
9	26638	145.965677871968	4
9	26715	146.583918871968	4
9	26792	147.202159871968	4
9	26869	147.820400871968	4
9	26946	148.438641871968	4
9	27023	149.056882871968	4
9	27100	149.675123871968	4
9	27177	150.293364871968	4
9	27254	150.911605871968	4
9	27331	151.529846871968	4
9	27408	152.148087871968	4
9	27485	152.766328871968	4
9	27562	153.384569871968	4
9	27639	154.002810871968	4
9	27958	154.621051871968	4
9	28037	155.239292871968	4
9	28243	155.857533871968	4
9	28449	156.475774871968	4
9	28526	157.094015871968	4
9	28603	157.712256871968	4
9	28680	158.330497871968	4
9	29040	158.948738871968	4
9	29117	159.566979871968	4
9	29194	160.185220871968	4
9	29271	160.803461871968	4
9	29348	161.421702871968	4
9	29425	162.039943871968	4
9	29619	162.658184871968	4
9	29696	163.276425871968	4
9	29777	163.894666871968	4
9	29854	164.512907871968	4
9	29931	165.131148871968	4
9	30008	165.749389871968	4
9	30085	166.367630871968	4
9	30162	166.985871871968	4
9	30239	167.604112871968	4
9	30316	168.222353871968	4
9	30393	168.840594871968	4
9	30470	169.458835871968	4
9	30547	170.077076871968	4
9	30626	170.695317871968	4
10	114	5.006729871968	9
11	115	5.006729871968	4
12	116	5.006730171968	10
12	1989	5.624971171968	10
12	2611	6.243212171968	10
12	2809	6.861453171968	10
12	2886	7.479694171968	10
12	3092	8.097935171968	10
12	3169	8.716176171968	10
12	3246	9.334417171968	10
12	3323	9.952658171968	10
12	3400	10.570899171968	10
12	3477	11.189140171968	10
12	3554	11.807381171968	10
12	3631	12.425622171968	10
12	3708	13.043863171968	10
12	3785	13.662104171968	10
12	3862	14.280345171968	10
12	3939	14.898586171968	10
12	4016	15.516827171968	10
12	4093	16.135068171968	10
12	4170	16.753309171968	10
12	4247	17.371550171968	10
12	4324	17.989791171968	10
12	4401	18.608032171968	10
12	4478	19.226273171968	10
12	4555	19.844514171968	10
12	5610	20.462755171968	10
12	6262	21.080996171968	10
12	6339	21.699237171968	10
12	6416	22.317478171968	10
12	6493	22.935719171968	10
12	6570	23.553960171968	10
12	6647	24.172201171968	10
12	6724	24.790442171968	10
12	6802	25.408683171968	10
12	7128	26.026924171968	10
12	7205	26.645165171968	10
12	7282	27.263406171968	10
12	7359	27.881647171968	10
12	7436	28.499888171968	10
12	7513	29.118129171968	10
12	7590	29.736370171968	10
12	7667	30.354611171968	10
12	7744	30.972852171968	10
12	7821	31.591093171968	10
12	7898	32.209334171968	10
12	7975	32.827575171968	10
12	8052	33.445816171968	10
12	8129	34.064057171968	10
12	8206	34.682298171968	10
12	8600	35.300539171968	10
12	8911	35.918780171968	10
12	9359	36.537021171968	10
12	9436	37.155262171968	10
12	9513	37.773503171968	10
12	9590	38.391744171968	10
12	9667	39.009985171968	10
12	9744	39.628226171968	10
12	9821	40.246467171968	10
12	9898	40.864708171968	10
12	10096	41.482949171968	10
12	10173	42.101190171968	10
12	10250	42.719431171968	10
12	10327	43.337672171968	10
12	10404	43.955913171968	10
12	10481	44.574154171968	10
12	10558	45.192395171968	10
12	10635	45.810636171968	10
12	10712	46.428877171968	10
12	10789	47.047118171968	10
12	10866	47.665359171968	10
12	10943	48.283600171968	10
12	11020	48.901841171968	10
12	11097	49.520082171968	10
12	11176	50.138323171968	10
12	11371	50.756564171968	10
12	11936	51.374805171968	10
12	12013	51.993046171968	10
12	12090	52.611287171968	10
12	12167	53.229528171968	10
12	12244	53.847769171968	10
12	12321	54.466010171968	10
12	12398	55.084251171968	10
12	12475	55.702492171968	10
12	12552	56.320733171968	10
12	12629	56.938974171968	10
12	12706	57.557215171968	10
12	12783	58.175456171968	10
12	12860	58.793697171968	10
12	12937	59.411938171968	10
12	13014	60.030179171968	10
12	13091	60.648420171968	10
12	13168	61.266661171968	10
12	13245	61.884902171968	10
12	13322	62.503143171968	10
12	13399	63.121384171968	10
12	13476	63.739625171968	10
12	13553	64.357866171968	10
12	13630	64.976107171968	10
12	13709	65.594348171968	10
12	13915	66.212589171968	10
12	14103	67.449071171968	10
12	14180	68.067312171968	10
12	14257	68.685553171968	10
12	14334	69.303794171968	10
12	14411	69.922035171968	10
12	14488	70.540276171968	10
12	14565	71.158517171968	10
12	14759	71.776758171968	10
12	14836	72.394999171968	10
12	14913	73.013240171968	10
12	14990	73.631481171968	10
12	15067	74.249722171968	10
12	15144	74.867963171968	10
12	15221	75.486204171968	10
12	15298	76.104445171968	10
12	15376	76.722686171968	10
12	15453	77.340927171968	10
12	15530	77.959168171968	10
12	15607	78.577409171968	10
12	15684	79.195650171968	10
12	15761	79.813891171968	10
12	16216	80.432132171968	10
12	16293	81.050373171968	10
12	16370	81.668614171968	10
12	16576	82.286855171968	10
12	16653	82.905096171968	10
12	16730	83.523337171968	10
12	16807	84.141578171968	10
12	16884	84.759819171968	10
12	16961	85.378060171968	10
12	17038	85.996301171968	10
12	17115	86.614542171968	10
12	17192	87.232783171968	10
12	17269	87.851024171968	10
12	17346	88.469265171968	10
12	17423	89.087506171968	10
12	17500	89.705747171968	10
12	17577	90.323988171968	10
12	17654	90.942229171968	10
12	17731	91.560470171968	10
12	17808	92.178711171968	10
12	17885	92.796952171968	10
12	17962	93.415193171968	10
12	18039	94.033434171968	10
12	18116	94.651675171968	10
12	18195	95.269916171968	10
12	18388	95.888157171968	10
12	18465	96.506398171968	10
12	18542	97.124639171968	10
12	18941	97.742880171968	10
12	19018	98.361121171968	10
12	19095	98.979362171968	10
12	19301	99.597603171968	10
12	19499	100.215844171968	10
12	19576	100.834085171968	10
12	19653	101.452326171968	10
12	19847	102.070567171968	10
12	19928	102.688808171968	10
12	20005	103.307049171968	10
12	20082	103.925290171968	10
12	20159	104.543531171968	10
12	20236	105.161772171968	10
12	20313	105.780013171968	10
12	20390	106.398254171968	10
12	20467	107.016495171968	10
12	20544	107.634736171968	10
12	20621	108.252977171968	10
12	20698	108.871218171968	10
12	20780	109.489459171968	10
12	21286	110.107700171968	10
12	21600	110.725941171968	10
12	21677	111.344182171968	10
12	21754	111.962423171968	10
12	21831	112.580664171968	10
12	21908	113.198905171968	10
12	21985	113.817146171968	10
12	22062	114.435387171968	10
12	22139	115.053628171968	10
12	22216	115.671869171968	10
12	22293	116.290110171968	10
12	22370	116.908351171968	10
12	22447	117.526592171968	10
12	22524	118.144833171968	10
12	22601	118.763074171968	10
12	22678	119.381315171968	10
12	22755	119.999556171968	10
12	22832	120.617797171968	10
12	22909	121.236038171968	10
12	22986	121.854279171968	10
12	23063	122.472520171968	10
12	23140	123.090761171968	10
12	23217	123.709002171968	10
12	23294	124.327243171968	10
12	23371	124.945484171968	10
12	23450	125.563725171968	10
12	23656	126.181966171968	10
12	23733	126.800207171968	10
12	23810	127.418448171968	10
12	23887	128.036689171968	10
12	24246	128.654930171968	10
12	24323	129.273171171968	10
12	24400	129.891412171968	10
12	24477	130.509653171968	10
12	24554	131.127894171968	10
12	24631	131.746135171968	10
12	24825	132.364376171968	10
12	24902	132.982617171968	10
12	24983	133.600858171968	10
12	25060	134.219099171968	10
12	25137	134.837340171968	10
12	25214	135.455581171968	10
12	25291	136.073822171968	10
12	25368	136.692063171968	10
12	25445	137.310304171968	10
12	25522	137.928545171968	10
12	25599	138.546786171968	10
12	25676	139.165027171968	10
12	25753	139.783268171968	10
12	25832	140.401509171968	10
12	26025	141.019750171968	10
12	26102	141.637991171968	10
12	26179	142.256232171968	10
12	26256	142.874473171968	10
12	26333	143.492714171968	10
12	26410	144.110955171968	10
12	26487	144.729196171968	10
12	26564	145.347437171968	10
12	26641	145.965678171968	10
12	26718	146.583919171968	10
12	26795	147.202160171968	10
12	26872	147.820401171968	10
12	26949	148.438642171968	10
12	27026	149.056883171968	10
12	27103	149.675124171968	10
12	27180	150.293365171968	10
12	27257	150.911606171968	10
12	27334	151.529847171968	10
12	27411	152.148088171968	10
12	27488	152.766329171968	10
12	27565	153.384570171968	10
12	27642	154.002811171968	10
12	27961	154.621052171968	10
12	28040	155.239293171968	10
12	28246	155.857534171968	10
12	28452	156.475775171968	10
12	28529	157.094016171968	10
12	28606	157.712257171968	10
12	28683	158.330498171968	10
12	29043	158.948739171968	10
12	29120	159.566980171968	10
12	29197	160.185221171968	10
12	29274	160.803462171968	10
12	29351	161.421703171968	10
12	29428	162.039944171968	10
12	29622	162.658185171968	10
12	29699	163.276426171968	10
12	29780	163.894667171968	10
12	29857	164.512908171968	10
12	29934	165.131149171968	10
12	30011	165.749390171968	10
12	30088	166.367631171968	10
12	30165	166.985872171968	10
12	30242	167.604113171968	10
12	30319	168.222354171968	10
12	30396	168.840595171968	10
12	30473	169.458836171968	10
12	30550	170.077077171968	10
12	30629	170.695318171968	10
13	117	5.006730171968	5
13	1990	5.624971171968	5
13	2612	6.243212171968	5
13	2810	6.861453171968	5
13	2887	7.479694171968	5
13	3093	8.097935171968	5
13	3170	8.716176171968	5
13	3247	9.334417171968	5
13	3324	9.952658171968	5
13	3401	10.570899171968	5
13	3478	11.189140171968	5
13	3555	11.807381171968	5
13	3632	12.425622171968	5
13	3709	13.043863171968	5
13	3786	13.662104171968	5
13	3863	14.280345171968	5
13	3940	14.898586171968	5
13	4017	15.516827171968	5
13	4094	16.135068171968	5
13	4171	16.753309171968	5
13	4248	17.371550171968	5
13	4325	17.989791171968	5
13	4402	18.608032171968	5
13	4479	19.226273171968	5
13	4556	19.844514171968	5
13	5611	20.462755171968	5
13	6263	21.080996171968	5
13	6340	21.699237171968	5
13	6417	22.317478171968	5
13	6494	22.935719171968	5
13	6571	23.553960171968	5
13	6648	24.172201171968	5
13	6725	24.790442171968	5
13	6803	25.408683171968	5
13	7129	26.026924171968	5
13	7206	26.645165171968	5
13	7283	27.263406171968	5
13	7360	27.881647171968	5
13	7437	28.499888171968	5
13	7514	29.118129171968	5
13	7591	29.736370171968	5
13	7668	30.354611171968	5
13	7745	30.972852171968	5
13	7822	31.591093171968	5
13	7899	32.209334171968	5
13	7976	32.827575171968	5
13	8053	33.445816171968	5
13	8130	34.064057171968	5
13	8207	34.682298171968	5
13	8601	35.300539171968	5
13	8912	35.918780171968	5
13	9360	36.537021171968	5
13	9437	37.155262171968	5
13	9514	37.773503171968	5
13	9591	38.391744171968	5
13	9668	39.009985171968	5
13	9745	39.628226171968	5
13	9822	40.246467171968	5
13	9899	40.864708171968	5
13	10097	41.482949171968	5
13	10174	42.101190171968	5
13	10251	42.719431171968	5
13	10328	43.337672171968	5
13	10405	43.955913171968	5
13	10482	44.574154171968	5
13	10559	45.192395171968	5
13	10636	45.810636171968	5
13	10713	46.428877171968	5
13	10790	47.047118171968	5
13	10867	47.665359171968	5
13	10944	48.283600171968	5
13	11021	48.901841171968	5
13	11098	49.520082171968	5
13	11177	50.138323171968	5
13	11372	50.756564171968	5
13	11937	51.374805171968	5
13	12014	51.993046171968	5
13	12091	52.611287171968	5
13	12168	53.229528171968	5
13	12245	53.847769171968	5
13	12322	54.466010171968	5
13	12399	55.084251171968	5
13	12476	55.702492171968	5
13	12553	56.320733171968	5
13	12630	56.938974171968	5
13	12707	57.557215171968	5
13	12784	58.175456171968	5
13	12861	58.793697171968	5
13	12938	59.411938171968	5
13	13015	60.030179171968	5
13	13092	60.648420171968	5
13	13169	61.266661171968	5
13	13246	61.884902171968	5
13	13323	62.503143171968	5
13	13400	63.121384171968	5
13	13477	63.739625171968	5
13	13554	64.357866171968	5
13	13631	64.976107171968	5
13	13710	65.594348171968	5
13	13916	66.212589171968	5
13	14104	67.449071171968	5
13	14181	68.067312171968	5
13	14258	68.685553171968	5
13	14335	69.303794171968	5
13	14412	69.922035171968	5
13	14489	70.540276171968	5
13	14566	71.158517171968	5
13	14760	71.776758171968	5
13	14837	72.394999171968	5
13	14914	73.013240171968	5
13	14991	73.631481171968	5
13	15068	74.249722171968	5
13	15145	74.867963171968	5
13	15222	75.486204171968	5
13	15299	76.104445171968	5
13	15377	76.722686171968	5
13	15454	77.340927171968	5
13	15531	77.959168171968	5
13	15608	78.577409171968	5
13	15685	79.195650171968	5
13	15762	79.813891171968	5
13	16217	80.432132171968	5
13	16294	81.050373171968	5
13	16371	81.668614171968	5
13	16577	82.286855171968	5
13	16654	82.905096171968	5
13	16731	83.523337171968	5
13	16808	84.141578171968	5
13	16885	84.759819171968	5
13	16962	85.378060171968	5
13	17039	85.996301171968	5
13	17116	86.614542171968	5
13	17193	87.232783171968	5
13	17270	87.851024171968	5
13	17347	88.469265171968	5
13	17424	89.087506171968	5
13	17501	89.705747171968	5
13	17578	90.323988171968	5
13	17655	90.942229171968	5
13	17732	91.560470171968	5
13	17809	92.178711171968	5
13	17886	92.796952171968	5
13	17963	93.415193171968	5
13	18040	94.033434171968	5
13	18117	94.651675171968	5
13	18196	95.269916171968	5
13	18389	95.888157171968	5
13	18466	96.506398171968	5
13	18543	97.124639171968	5
13	18942	97.742880171968	5
13	19019	98.361121171968	5
13	19096	98.979362171968	5
13	19302	99.597603171968	5
13	19500	100.215844171968	5
13	19577	100.834085171968	5
13	19654	101.452326171968	5
13	19848	102.070567171968	5
13	19929	102.688808171968	5
13	20006	103.307049171968	5
13	20083	103.925290171968	5
13	20160	104.543531171968	5
13	20237	105.161772171968	5
13	20314	105.780013171968	5
13	20391	106.398254171968	5
13	20468	107.016495171968	5
13	20545	107.634736171968	5
13	20622	108.252977171968	5
13	20699	108.871218171968	5
13	20781	109.489459171968	5
13	21287	110.107700171968	5
13	21601	110.725941171968	5
13	21678	111.344182171968	5
13	21755	111.962423171968	5
13	21832	112.580664171968	5
13	21909	113.198905171968	5
13	21986	113.817146171968	5
13	22063	114.435387171968	5
13	22140	115.053628171968	5
13	22217	115.671869171968	5
13	22294	116.290110171968	5
13	22371	116.908351171968	5
13	22448	117.526592171968	5
13	22525	118.144833171968	5
13	22602	118.763074171968	5
13	22679	119.381315171968	5
13	22756	119.999556171968	5
13	22833	120.617797171968	5
13	22910	121.236038171968	5
13	22987	121.854279171968	5
13	23064	122.472520171968	5
13	23141	123.090761171968	5
13	23218	123.709002171968	5
13	23295	124.327243171968	5
13	23372	124.945484171968	5
13	23451	125.563725171968	5
13	23657	126.181966171968	5
13	23734	126.800207171968	5
13	23811	127.418448171968	5
13	23888	128.036689171968	5
13	24247	128.654930171968	5
13	24324	129.273171171968	5
13	24401	129.891412171968	5
13	24478	130.509653171968	5
13	24555	131.127894171968	5
13	24632	131.746135171968	5
13	24826	132.364376171968	5
13	24903	132.982617171968	5
13	24984	133.600858171968	5
13	25061	134.219099171968	5
13	25138	134.837340171968	5
13	25215	135.455581171968	5
13	25292	136.073822171968	5
13	25369	136.692063171968	5
13	25446	137.310304171968	5
13	25523	137.928545171968	5
13	25600	138.546786171968	5
13	25677	139.165027171968	5
13	25754	139.783268171968	5
13	25833	140.401509171968	5
13	26026	141.019750171968	5
13	26103	141.637991171968	5
13	26180	142.256232171968	5
13	26257	142.874473171968	5
13	26334	143.492714171968	5
13	26411	144.110955171968	5
13	26488	144.729196171968	5
13	26565	145.347437171968	5
13	26642	145.965678171968	5
13	26719	146.583919171968	5
13	26796	147.202160171968	5
13	26873	147.820401171968	5
13	26950	148.438642171968	5
13	27027	149.056883171968	5
13	27104	149.675124171968	5
13	27181	150.293365171968	5
13	27258	150.911606171968	5
13	27335	151.529847171968	5
13	27412	152.148088171968	5
13	27489	152.766329171968	5
13	27566	153.384570171968	5
13	27643	154.002811171968	5
13	27962	154.621052171968	5
13	28041	155.239293171968	5
13	28247	155.857534171968	5
13	28453	156.475775171968	5
13	28530	157.094016171968	5
13	28607	157.712257171968	5
13	28684	158.330498171968	5
13	29044	158.948739171968	5
13	29121	159.566980171968	5
13	29198	160.185221171968	5
13	29275	160.803462171968	5
13	29352	161.421703171968	5
13	29429	162.039944171968	5
13	29623	162.658185171968	5
13	29700	163.276426171968	5
13	29781	163.894667171968	5
13	29858	164.512908171968	5
13	29935	165.131149171968	5
13	30012	165.749390171968	5
13	30089	166.367631171968	5
13	30166	166.985872171968	5
13	30243	167.604113171968	5
13	30320	168.222354171968	5
13	30397	168.840595171968	5
13	30474	169.458836171968	5
13	30551	170.077077171968	5
13	30630	170.695318171968	5
14	118	5.006730171968	10
14	21288	110.107700171968	10
15	119	5.006730171968	5
15	21289	110.107700171968	5
16	120	5.006730471968	1
16	327	5.058082839369	2
16	390	5.08297818621	3
16	455	5.110221643863	4
16	518	5.120927538557	5
16	578	5.129605161945	6
16	643	5.138472786201	7
16	824	5.212930449872	8
16	886	5.240961858223	9
16	950	5.267220745773	10
16	1203	5.350696465906	11
16	1456	5.460805710875	12
16	1728	5.523760499505	13
16	1859	5.545073344406	14
16	1993	5.624971471968	15
16	2052	5.652184493661	16
16	2114	5.678820709103	17
16	2174	5.703959559808	18
16	2234	5.716005039371	19
16	2296	5.725931282741	20
16	2358	5.734589500687	21
16	2416	5.746480922127	22
16	2479	6.134921713246	23
16	2540	6.147751899777	24
16	2615	6.243212471968	25
16	2677	6.361936099417	26
16	2735	6.375163203384	27
16	2813	6.861453471968	28
16	2890	7.479694471968	29
16	2952	7.988889767611	30
16	3096	8.097935471968	31
16	3173	8.716176471968	32
16	3250	9.334417471968	33
16	3327	9.952658471968	34
16	3404	10.570899471968	35
16	3481	11.189140471968	36
16	3558	11.807381471968	37
16	3635	12.425622471968	38
16	3712	13.043863471968	39
16	3789	13.662104471968	40
16	3866	14.280345471968	41
16	3943	14.898586471968	42
16	4020	15.516827471968	43
16	4097	16.135068471968	44
16	4174	16.753309471968	45
16	4251	17.371550471968	46
16	4328	17.989791471968	47
16	4405	18.608032471968	48
16	4482	19.226273471968	49
16	4559	19.844514471968	50
16	4623	20.185447538401	51
16	4698	20.211626254203	52
16	5065	20.350600388652	53
16	5129	20.359534707697	54
16	5267	20.396593008329	55
16	5404	20.420656728325	56
16	5468	20.42938343351	57
16	5614	20.462755471968	58
16	5753	20.485945851462	59
16	5816	20.495082794476	60
16	6007	20.536532923903	61
16	6070	20.549496340016	62
16	6266	21.080996471968	63
16	6343	21.699237471968	64
16	6420	22.317478471968	65
16	6497	22.935719471968	66
16	6574	23.553960471968	67
16	6651	24.172201471968	68
16	6728	24.790442471968	69
16	6806	25.408683471968	70
16	6867	25.420456620041	71
16	6996	25.99507763525	72
16	7132	26.026924471968	73
16	7209	26.645165471968	74
16	7286	27.263406471968	75
16	7363	27.881647471968	76
16	7440	28.499888471968	77
16	7517	29.118129471968	78
16	7594	29.736370471968	79
16	7671	30.354611471968	80
16	7748	30.972852471968	81
16	7825	31.591093471968	82
16	7902	32.209334471968	83
16	7979	32.827575471968	84
16	8056	33.445816471968	85
16	8133	34.064057471968	86
16	8210	34.682298471968	87
16	8274	35.216999062898	88
16	8345	35.244346307297	89
16	8536	35.291808378698	90
16	8604	35.300539471968	91
16	8838	35.354427869246	92
16	8915	35.918780471968	93
16	9363	36.537021471968	94
16	9440	37.155262471968	95
16	9517	37.773503471968	96
16	9594	38.391744471968	97
16	9671	39.009985471968	98
16	9748	39.628226471968	99
16	9825	40.246467471968	100
16	9902	40.864708471968	101
16	10100	41.482949471968	102
16	10177	42.101190471968	103
16	10254	42.719431471968	104
16	10331	43.337672471968	105
16	10408	43.955913471968	106
16	10485	44.574154471968	107
16	10562	45.192395471968	108
16	10639	45.810636471968	109
16	10716	46.428877471968	110
16	10793	47.047118471968	111
16	10870	47.665359471968	112
16	10947	48.283600471968	113
16	11024	48.901841471968	114
16	11101	49.520082471968	115
16	11180	50.138323471968	116
16	11375	50.756564471968	117
16	11559	50.789724659066	118
16	11682	50.811418183725	119
16	11742	50.820331614308	120
16	11804	50.829991258311	121
16	11940	51.374805471968	122
16	12017	51.993046471968	123
16	12094	52.611287471968	124
16	12171	53.229528471968	125
16	12248	53.847769471968	126
16	12325	54.466010471968	127
16	12402	55.084251471968	128
16	12479	55.702492471968	129
16	12556	56.320733471968	130
16	12633	56.938974471968	131
16	12710	57.557215471968	132
16	12787	58.175456471968	133
16	12864	58.793697471968	134
16	12941	59.411938471968	135
16	13018	60.030179471968	136
16	13095	60.648420471968	137
16	13172	61.266661471968	138
16	13249	61.884902471968	139
16	13326	62.503143471968	140
16	13403	63.121384471968	141
16	13480	63.739625471968	142
16	13557	64.357866471968	143
16	13634	64.976107471968	144
16	13713	65.594348471968	145
16	13780	65.621179447627	146
16	13919	66.212589471968	147
16	14107	67.449071471968	148
16	14184	68.067312471968	149
16	14261	68.685553471968	150
16	14338	69.303794471968	151
16	14415	69.922035471968	152
16	14492	70.540276471968	153
16	14569	71.158517471968	154
16	14763	71.776758471968	155
16	14840	72.394999471968	156
16	14917	73.013240471968	157
16	14994	73.631481471968	158
16	15071	74.249722471968	159
16	15148	74.867963471968	160
16	15225	75.486204471968	161
16	15302	76.104445471968	162
16	15380	76.722686471968	163
16	15457	77.340927471968	164
16	15534	77.959168471968	165
16	15611	78.577409471968	166
16	15688	79.195650471968	167
16	15765	79.813891471968	168
16	15829	80.134488738554	169
16	15900	80.159565684564	170
16	15960	80.181617379167	171
16	16084	80.364969217541	172
16	16142	80.378562968951	173
16	16220	80.432132471968	174
16	16297	81.050373471968	175
16	16374	81.668614471968	176
16	16436	81.990807251433	177
16	16580	82.286855471968	178
16	16657	82.905096471968	179
16	16734	83.523337471968	180
16	16811	84.141578471968	181
16	16888	84.759819471968	182
16	16965	85.378060471968	183
16	17042	85.996301471968	184
16	17119	86.614542471968	185
16	17196	87.232783471968	186
16	17273	87.851024471968	187
[...]
27	106081	450.920895972578	3
27	106119	450.922655972578	1
27	106240	450.974522354779	3
27	106251	450.974938354779	1
27	106313	450.987539973702	3
27	106339	450.987955973702	1
27	106482	451.383461230649	3
27	106501	451.384229230649	1
27	106688	452.001702230649	3
27	106707	452.002470230649	1
27	106836	452.035704222923	3
27	106850	452.036184222923	1
27	107021	452.619943230649	3
27	107040	452.620711230649	1
27	107489	453.238184230649	3
27	107508	453.238952230649	1
27	107637	453.363962608471	3
27	107648	453.364442608471	1
27	107710	453.374672320762	3
27	107736	453.375152320762	1
27	107761	453.386180008924	3
27	107772	453.386660008924	1
27	107947	453.856425230649	3
27	107966	453.857193230649	1
27	108152	454.474666230649	3
27	108171	454.475434230649	1
27	108357	455.092907230649	3
27	108376	455.093675230649	1
27	108562	455.711148230649	3
27	108581	455.711916230649	1
27	108767	456.329389230649	3
27	108786	456.330157230649	1
27	108972	456.947630230649	3
27	108991	456.948398230649	1
27	109177	457.565871230649	3
27	109196	457.566639230649	1
27	109645	458.184112230649	3
27	109664	458.184880230649	1
28	100115	435.31840850262	3
28	100195	435.31914450262	1
28	100234	435.332681351383	3
28	100248	435.333417351383	1
28	100311	435.356913963785	3
28	100343	435.357649963785	1
28	100913	437.349250363271	3
28	100945	437.357442363271	1
28	105365	450.596407575853	3
28	105379	450.596855575853	1
28	105493	450.614962138224	3
28	105507	450.615410138224	1
28	105678	450.765220364074	3
28	105700	450.765988364074	1
28	105826	450.810967650414	3
28	105840	450.812727650414	1
28	105955	450.866021186411	3
28	105969	450.867781186411	1
28	106082	450.920896106003	3
28	106123	450.922656106003	1
28	106241	450.974522488204	3
28	106255	450.974938488204	1
28	106483	451.383461364074	3
28	106505	451.384229364074	1
28	106689	452.001702364074	3
28	106711	452.002470364074	1
28	106842	452.035704428583	3
28	106874	452.036184428583	1
28	107022	452.619943364074	3
28	107044	452.620711364074	1
28	107490	453.238184364074	3
28	107512	453.238952364074	1
28	107638	453.363962741896	3
28	107652	453.364442741896	1
28	107762	453.386180142349	3
28	107776	453.386660142349	1
28	107948	453.856425364074	3
28	107970	453.857193364074	1
28	108153	454.474666364074	3
28	108175	454.475434364074	1
28	108358	455.092907364074	3
28	108380	455.093675364074	1
28	108563	455.711148364074	3
28	108585	455.711916364074	1
28	108768	456.329389364074	3
28	108790	456.330157364074	1
28	108973	456.947630364074	3
28	108995	456.948398364074	1
28	109178	457.565871364074	3
28	109200	457.566639364074	1
28	109646	458.184112364074	3
28	109668	458.184880364074	1
29	100113	435.318408497099	3
29	100187	435.319144497099	1
29	100236	435.332681362209	3
29	100256	435.333417362209	1
29	100312	435.35691396748	3
29	100347	435.35764996748	1
29	100914	437.349250366966	3
29	100949	437.357442366966	1
29	105367	450.596407586679	3
29	105387	450.596855586679	1
29	105495	450.61496214905	3
29	105515	450.61541014905	1
29	105680	450.7652203749	3
29	105708	450.7659883749	1
29	105828	450.81096766124	3
29	105848	450.81272766124	1
29	105957	450.866021197237	3
29	105977	450.867781197237	1
29	106084	450.920896116829	3
29	106131	450.922656116829	1
29	106243	450.97452249903	3
29	106263	450.97493849903	1
29	106485	451.3834613749	3
29	106513	451.3842293749	1
29	106691	452.0017023749	3
29	106719	452.0024703749	1
29	106840	452.035704423062	3
29	106866	452.036184423062	1
29	107024	452.6199433749	3
29	107052	452.6207113749	1
29	107492	453.2381843749	3
29	107520	453.2389523749	1
29	107640	453.363962752722	3
29	107660	453.364442752722	1
29	107764	453.386180153175	3
29	107784	453.386660153175	1
29	107950	453.8564253749	3
29	107978	453.8571933749	1
29	108155	454.4746663749	3
29	108183	454.4754343749	1
29	108360	455.0929073749	3
29	108388	455.0936753749	1
29	108565	455.7111483749	3
29	108593	455.7119163749	1
29	108770	456.3293893749	3
29	108798	456.3301573749	1
29	108975	456.9476303749	3
29	109003	456.9483983749	1
29	109180	457.5658713749	3
29	109208	457.5666393749	1
29	109648	458.1841123749	3
30	106177	450.948969886498	5
31	106177	450.948969886498	0.17255871453
32	99953	435.286115389285	49
32	102441	442.52481331812	50
32	102818	442.696536357232	51
32	104306	447.724860070732	52
32	106229	450.967288843522	53
32	107295	453.02119557898	54
32	109320	457.981742338459	55
33	100425	435.386561543492	4
33	105119	450.17171144311	0
34	100425	435.386561543492	0.113116205397
34	105119	450.17171144311	0.009576280828
35	101025	437.478225482651	1
35	102264	442.478225482651	1
35	102503	442.540137192156	2
35	102562	442.605024337541	1
35	103574	445.315311727764	1
35	104372	447.782728867271	1
35	104919	450.12424299639	1
35	105056	450.15144	1
35	105177	450.352131770135	1
35	105298	450.575959908072	1
35	105422	450.599846431587	1
35	105885	450.831045608964	1
35	106564	451.977026769463	1
35	106769	452.015123	1
35	107105	452.782728867271	1
35	107571	453.347146606454	1
35	109386	458.06580856008	1
36	101025	437.478225482651	0
36	102264	442.478225482651	0
36	102503	442.540137192156	0
36	102562	442.605024337541	0
36	103574	445.315311727764	1
36	104372	447.782728867271	0
36	104919	450.12424299639	1
36	105056	450.15144	1
36	105177	450.352131770135	1
36	105298	450.575959908072	0
36	105422	450.599846431587	0
36	105885	450.831045608964	0
36	106564	451.977026769463	1
36	106769	452.015123	1
36	107105	452.782728867271	0
36	107571	453.347146606454	1
36	109386	458.06580856008	0
37	101038	437.539981596626	0
37	102267	442.484566418259	0
37	102515	442.599923248741	0
37	102575	442.612349995321	0
37	103577	445.321677622817	0
37	104385	447.864426833346	0
37	105059	450.158770076298	0
37	105180	450.358912947322	0
37	105301	450.583877857088	0
37	105428	450.605903663172	0
37	105891	450.838703840129	0
37	106772	452.024153593562	0
37	107112	452.870777454314	0
37	107574	453.35391141702	0
37	109399	458.116956171088	0
38	106169	450.940974064553	9
39	106169	450.940974064553	6
41	100119	435.318841995972	0
41	100365	435.372087034723	0
41	100971	437.462672482651	0
41	101102	437.580620627496	0
41	102327	442.501864430879	0
41	102449	442.533033488412	0
41	102639	442.643105118167	0
41	102702	442.657674081286	0
41	102967	442.81105064177	0
41	103637	445.331387325851	0
41	104318	447.767175867271	0
41	104449	447.946250637296	0
41	107176	452.942968915843	0
41	107307	453.044533722557	0
41	109332	458.05025556008	0
41	109463	458.157794775585	0
42	100024	435.302465881968	0
42	100119	435.318841995972	0.045397191579
42	100365	435.372087034723	0.098642086079
42	100548	435.920706881968	0
42	100685	436.538947881968	0
42	100822	437.157188881968	0
42	100971	437.462672482651	0.168699855859
42	101102	437.580620627496	0.102395144845
42	101226	437.775429881968	0
42	101363	438.393670881968	0
42	101500	439.011911881968	0
42	101637	439.630152881968	0
42	101774	440.248393881968	0
42	101916	440.866634881968	0
42	102053	441.484875881968	0
42	102190	442.103116881968	0
42	102327	442.501864430879	0.023638948228
42	102449	442.533033488412	0.021822663133
42	102639	442.643105118167	0.102967926011
42	102702	442.657674081286	0.042706363533
42	102889	442.721357881968	0
42	102967	442.81105064177	0.162843834803
42	103091	443.339598881968	0
42	103228	443.957839881968	0
42	103365	444.576080881968	0
42	103502	445.194321881968	0
42	103637	445.331387325851	0.00634431705
42	103760	445.812562881968	0
42	103899	446.430803881968	0
42	104036	447.049044881968	0
42	104176	447.667285881968	0
42	104318	447.767175867271	0.118969060304
42	104449	447.946250637296	0.163521770025
42	104573	448.285526881968	0
42	104710	448.903767881968	0
42	104847	449.522008881968	0
42	104985	450.140249881968	0
42	105620	450.758490881968	0
42	106425	451.376731881968	0
42	106631	451.994972881968	0
42	106964	452.613213881968	0
42	107176	452.942968915843	0.160240048572
42	107307	453.044533722557	0.100008996714
42	107432	453.231454881968	0
42	107890	453.849695881968	0
42	108095	454.467936881968	0
42	108300	455.086177881968	0
42	108505	455.704418881968	0
42	108710	456.322659881968	0
42	108915	456.940900881968	0
42	109120	457.559141881968	0
42	109332	458.05025556008	0.105730834237
42	109463	458.157794775585	0.091986215505
42	109588	458.177382881968	0
47	100117	435.318408698163	3
47	100203	435.319144698163	1
47	100239	435.332681552909	3
47	100268	435.333417552909	1
47	105370	450.596407777379	3
47	105399	450.596855777379	1
47	105498	450.61496233975	3
47	105527	450.61541033975	1
47	105685	450.7652205656	3
47	105720	450.7659885656	1
47	105831	450.81096785194	3
47	105860	450.81272785194	1
47	105960	450.866021387937	3
47	105989	450.867781387937	1
47	106087	450.920896307529	3
47	106143	450.922656307529	1
47	106246	450.97452268973	3
47	106275	450.97493868973	1
47	106490	451.3834615656	3
47	106525	451.3842295656	1
47	106696	452.0017025656	3
47	106731	452.0024705656	1
47	106844	452.035704624126	3
47	106882	452.036184624126	1
47	107029	452.6199435656	3
47	107064	452.6207115656	1
47	107497	453.2381845656	3
47	107532	453.2389525656	1
47	107643	453.363962943422	3
47	107672	453.364442943422	1
47	107767	453.386180343875	3
47	107796	453.386660343875	1
47	107955	453.8564255656	3
47	107990	453.8571935656	1
47	108160	454.4746665656	3
47	108195	454.4754345656	1
47	108365	455.0929075656	3
47	108400	455.0936755656	1
47	108570	455.7111485656	3
47	108605	455.7119165656	1
47	108775	456.3293895656	3
47	108810	456.3301575656	1
47	108980	456.9476305656	3
47	109015	456.9483985656	1
47	109185	457.5658715656	3
47	109220	457.5666395656	1
47	109653	458.1841125656	3
48	99839	435.26757130378	3
48	99856	435.26821130378	1
48	100112	435.318408307786	3
48	100180	435.319144307786	1
48	100238	435.332681551522	3
48	100264	435.333417551522	1
48	105369	450.596407775992	3
48	105395	450.596855775992	1
48	105497	450.614962338363	3
48	105523	450.615410338363	1
48	105684	450.765220564213	3
48	105716	450.765988564213	1
48	105767	450.781088143168	3
48	105785	450.782848143168	1
48	105830	450.810967850553	3
48	105856	450.812727850553	1
48	105959	450.86602138655	3
48	105985	450.86778138655	1
48	106025	450.892652779097	3
48	106042	450.894412779097	1
48	106086	450.920896306142	3
48	106139	450.922656306142	1
48	106245	450.974522688343	3
48	106271	450.974938688343	1
48	106310	450.987539584251	3
48	106327	450.987955584251	1
48	106489	451.383461564213	3
48	106521	451.384229564213	1
48	106695	452.001702564213	3
48	106727	452.002470564213	1
48	106839	452.035704233749	3
48	106859	452.036184233749	1
48	107028	452.619943564213	3
48	107060	452.620711564213	1
48	107496	453.238184564213	3
48	107528	453.238952564213	1
48	107642	453.363962942035	3
48	107668	453.364442942035	1
48	107707	453.374671931311	3
48	107724	453.375151931311	1
48	107766	453.386180342488	3
48	107792	453.386660342488	1
48	107954	453.856425564213	3
48	107986	453.857193564213	1
48	108159	454.474666564213	3
48	108191	454.475434564213	1
48	108364	455.092907564213	3
48	108396	455.093675564213	1
48	108569	455.711148564213	3
48	108601	455.711916564213	1
48	108774	456.329389564213	3
48	108806	456.330157564213	1
48	108979	456.947630564213	3
48	109011	456.948398564213	1
48	109184	457.565871564213	3
48	109216	457.566639564213	1
48	109652	458.184112564213	3
49	100230	435.332681151245	2
49	105361	450.596407375715	0
49	105489	450.614961938086	0
49	105822	450.810967450276	0
49	105951	450.866020986273	0
49	106078	450.920895905865	0
49	106237	450.974522288066	0
49	107634	453.363962541758	0
49	107758	453.386179942211	0
50	100230	435.332681151245	0.059235809455
50	105361	450.596407375715	0.009538264419
50	105489	450.614961938086	0.006067020706
50	105674	450.765220163936	0
50	105822	450.810967450276	0.038249710262
50	105951	450.866020986273	0.034975377309
50	106078	450.920895905865	0.034796558458
50	106237	450.974522288066	0.061791358799
50	106479	451.383461163936	0
50	106685	452.001702163936	0
50	107018	452.619943163936	0
50	107486	453.238184163936	0
50	107634	453.363962541758	0.016815935304
50	107758	453.386179942211	0.018372310359
50	107944	453.856425163936	0
50	108149	454.474666163936	0
50	108354	455.092907163936	0
50	108559	455.711148163936	0
50	108764	456.329389163936	0
50	108969	456.947630163936	0
50	109174	457.565871163936	0
50	109642	458.184112163936	0
51	100232	435.332681151245	2
51	100243	435.333417151245	1
51	105363	450.596407375715	2
51	105374	450.596855375715	1
51	105491	450.614961938086	2
51	105502	450.615409938086	1
51	105676	450.765220163936	2
51	105695	450.765988163936	1
51	105824	450.810967450276	2
51	105835	450.812727450276	1
51	105953	450.866020986273	2
51	105964	450.867780986273	1
51	106080	450.920895905865	2
51	106118	450.922655905865	1
51	106239	450.974522288066	2
51	106250	450.974938288066	1
51	106481	451.383461163936	2
51	106500	451.384229163936	1
51	106687	452.001702163936	2
51	106706	452.002470163936	1
51	107020	452.619943163936	2
51	107039	452.620711163936	1
51	107488	453.238184163936	2
51	107507	453.238952163936	1
51	107636	453.363962541758	2
51	107647	453.364442541758	1
51	107760	453.386179942211	2
51	107771	453.386659942211	1
51	107946	453.856425163936	2
51	107965	453.857193163936	1
51	108151	454.474666163936	2
51	108170	454.475434163936	1
51	108356	455.092907163936	2
51	108375	455.093675163936	1
51	108561	455.711148163936	2
51	108580	455.711916163936	1
51	108766	456.329389163936	2
51	108785	456.330157163936	1
51	108971	456.947630163936	2
51	108990	456.948398163936	1
51	109176	457.565871163936	2
51	109195	457.566639163936	1
51	109644	458.184112163936	2
51	109663	458.184880163936	1
52	100105	435.318408096822	0
52	106832	452.035704022785	0
53	100105	435.318408096822	0.044962958865
53	106832	452.035704022785	0.008185043239
54	100107	435.318408096822	2
54	100166	435.319144096822	1
54	106834	452.035704022785	2
54	106845	452.036184022785	1
57	105240	450.37161081293	0
58	105240	450.37161081293	0.009333079624
59	99955	435.286115989285	43
59	102443	442.52481391812	44
59	102820	442.696536957232	45
59	104308	447.724860670732	46
59	106227	450.967288243522	47
59	107297	453.02119617898	48
59	109322	457.981742938459	49
60	99954	435.286115689285	43
60	102442	442.52481361812	44
60	102819	442.696536657232	45
60	104307	447.724860370732	46
60	106228	450.967288543522	47
60	107296	453.02119587898	48
60	109321	457.981742638459	49
61	99952	435.286115089285	43
61	102440	442.52481301812	44
61	102817	442.696536057232	45
61	104305	447.724859770732	46
61	106230	450.967289143522	47
61	107294	453.02119527898	48
61	109319	457.981742038459	49
62	99951	435.286114789285	43
62	102439	442.52481271812	44
62	102816	442.696535757232	45
62	104304	447.724859470732	46
62	106231	450.967289443522	47
62	107293	453.02119497898	48
62	109318	457.981741738459	49
63	106232	450.967289743522	24
64	106233	450.967290043522	24
65	99836	435.267571092816	2
65	99847	435.268211092816	1
65	105764	450.781087932204	2
65	105776	450.782847932204	1
65	106022	450.892652568133	2
65	106033	450.894412568133	1
65	106093	450.921212681535	2
65	106104	450.921628681535	1
65	106307	450.987539373287	2
65	106318	450.987955373287	1
65	107704	453.374671720347	2
65	107715	453.375151720347	1
66	99956	435.286116289285	20
66	102444	442.52481421812	21
66	102821	442.696537257232	22
66	104309	447.724860970732	23
66	107298	453.02119647898	24
66	109323	457.981743238459	25
67	99957	435.286116589285	20
67	102445	442.52481451812	21
67	102822	442.696537557232	22
67	104310	447.724861270732	23
67	107299	453.02119677898	24
67	109324	457.981743538459	25
72	103832	446.338794171968	4
73	99950	435.286114489285	1
73	99950	435.286114489285	1
73	100091	435.311425871968	1
73	100354	435.3640047037	1
73	100957	437.372994062994	1
73	101090	437.540666789026	1
73	102319	442.493913112659	1
73	102438	442.52481241812	1
73	102567	442.605025237541	1
73	102686	442.648206206967	1
73	102815	442.696535457232	1
73	102815	442.696535457232	1
73	102956	442.730317871968	1
73	103629	445.325043008801	1
73	104303	447.724859170732	1
73	104437	447.865112025746	1
73	107164	452.872333564314	1
73	107292	453.02119467898	1
73	109317	457.981741438459	1
73	109451	458.117641363488	1
73	109451	458.117641363488	1
74	99950	435.286114489285	0
74	99950	435.286114489285	0
74	100091	435.311425871968	0
74	100354	435.3640047037	0
74	100957	437.372994062994	0
74	101090	437.540666789026	0
74	102319	442.493913112659	0
74	102438	442.52481241812	0
74	102567	442.605025237541	0
74	102686	442.648206206967	0
74	102815	442.696535457232	0
74	102815	442.696535457232	0
74	102956	442.730317871968	0
74	103629	445.325043008801	1
74	104303	447.724859170732	0
74	104437	447.865112025746	0
74	107164	452.872333564314	0
74	107292	453.02119467898	0
74	109317	457.981741438459	0
74	109451	458.117641363488	0
74	109451	458.117641363488	0
75	105422	450.599846431587	2
76	105422	450.599846431587	8
77	100079	435.309195453936	11
77	100603	435.927436453936	11
77	100740	436.545677453936	11
77	100877	437.163918453936	11
77	101281	437.782159453936	11
77	101418	438.400400453936	11
77	101555	439.018641453936	11
77	101692	439.636882453936	11
77	101829	440.255123453936	11
77	101971	440.873364453936	11
77	102108	441.491605453936	11
77	102245	442.109846453936	11
77	102944	442.728087453936	11
77	103146	443.346328453936	11
77	103283	443.964569453936	11
77	103420	444.582810453936	11
77	103557	445.201051453936	11
77	103815	445.819292453936	11
77	103954	446.437533453936	11
77	104091	447.055774453936	11
77	104231	447.674015453936	11
77	104628	448.292256453936	11
77	104765	448.910497453936	11
77	104902	449.528738453936	11
77	105040	450.146979453936	11
77	105683	450.765220453936	11
77	105745	450.772717736319	11
77	106488	451.383461453936	11
77	106550	451.390958736319	11
77	106694	452.001702453936	11
77	106756	452.009199736319	11
77	107027	452.619943453936	11
77	107089	452.627440736319	11
77	107495	453.238184453936	11
77	107557	453.245681736319	11
77	107953	453.856425453936	11
77	108015	453.863922736319	11
77	108158	454.474666453936	11
77	108220	454.482163736319	11
77	108363	455.092907453936	11
77	108425	455.100404736319	11
77	108568	455.711148453936	11
77	108630	455.718645736319	11
77	108773	456.329389453936	11
77	108835	456.336886736319	11
77	108978	456.947630453936	11
77	109040	456.955127736319	11
77	109183	457.565871453936	11
77	109245	457.573368736319	11
77	109651	458.184112453936	11
79	99897	435.279758749093	0
79	102389	442.517709014376	0
79	102766	442.695850564832	0
79	104254	447.709306470732	0
79	107243	453.02050978658	0
79	109268	457.966188738459	0
80	99897	435.279758749093	0.0063139447
80	102389	442.517709014376	0.006498189097
80	102766	442.695850564832	0.047643757865
80	104254	447.709306470732	0.061099663765
80	107243	453.02050978658	0.075985060737
80	109268	457.966188738459	0.021664012616
85	102262	442.478225482651	10.27297845458
85	107103	452.782728867271	10.30450338462
86	102262	442.478225482651	186.11934293969
86	107103	452.782728867271	185.54994148032
92	100894	437.293972626792	10.239954969133
93	104108	447.648206806967	0
93	109259	457.944524725843	10.30450338462
94	105351	450.586869111296	1
94	105479	450.60889491738	1
94	105819	450.801166293338	1
94	105941	450.857022197153	1
94	106073	450.912730929267	1
94	106231	450.967289443522	1
94	107624	453.357276503004	1
94	107754	453.378516810441	1
95	105351	450.586869111296	0
95	105479	450.60889491738	0
95	105819	450.801166293338	0
95	105941	450.857022197153	0
95	106073	450.912730929267	0
95	106231	450.967289443522	0
95	107624	453.357276503004	1
95	107754	453.378516810441	1
96	105746	450.772717740014	6
96	106551	451.390958740014	6
96	106757	452.009199740014	6
96	107090	452.627440740014	6
96	107558	453.245681740014	6
96	108016	453.863922740014	6
96	108221	454.482163740014	6
96	108426	455.100404740014	6
96	108631	455.718645740014	6
96	108836	456.336886740014	6
96	109041	456.955127740014	6
96	109246	457.573368740014	6
97	105747	450.772717740014	6
98	105762	450.781087932204	0
98	106020	450.892652568133	0
98	106091	450.921212681535	0
98	106305	450.987539373287	0
98	107702	453.374671720347	0
99	105762	450.781087932204	0.00837019219
99	106020	450.892652568133	0.006553220726
99	106091	450.921212681535	0.035113334128
99	106305	450.987539373287	0.009983658679
99	107702	453.374671720347	0.006864088495
