version 3
run General-0-20220429-09:18:24-4135
attr configname General
attr datetime 20220429-09:18:24
attr datetimef 20220429-091824
attr experiment General
attr inifile HybridMeter.ini
attr iterationvars ""
attr iterationvarsd ""
attr iterationvarsf ""
attr measurement ""
attr network HybridMeter_Net
attr processid 4135
attr repetition 0
attr replication #0
attr resultdir results
attr runnumber 0
attr seedset 0
config debug-on-errors true
config image-path ../../../../inet4.3/images
config network HybridMeter_Net
config repeat 1
config **.*.*.BERFilename "\"./BERDATA/RSC_M_4.txt\""
config **.*.*.standaloneRFNetwork false
config **.radio.centerFrequency "905 MHz"
config **.radio.bandwidth "2.8 MHz"
config **.radio.headerLength "(1 *8 + 7 + 1) * 16us"
config **.transmitter.modulation "\"BPSK\""
config **.transmitter.bitrate 250kbps
config **.transmitter.power 2.29mW
config **.receiver.modulation "\"BPSK\""
config **.receiver.sensitivity -94.01dBm
config **.receiver.minInterferencePower -120dBm
config *.RfBaseNode.mobility.typename StationaryMobility
config *.PLC_BN.hasRF true
config *.PLC_BN.hasPRIME true
config *.*.rflan.PHYLayerAbstraction.posicionYdelBN 300
config *.PLC_BN.mac.oneOfEveryXNodesIsHybrid 1
config *.PLC_BN.mac.oneOfEveryXRegularNodesIsRF 0
config *.PLC_BN.mac.oneOfEveryXHybridNodesIsRF 0
config *.RfServiceNode.mobility.typename StationaryMobility
config *.PLC_SN[*].hasRF true
config *.PLC_SN[*].hasPRIME true
config *.PLC_SN[*].mac.oneOfEveryXNodesIsHybrid 1
config *.PLC_SN[*].mac.oneOfEveryXRegularNodesIsRF 0
config *.PLC_SN[*].mac.oneOfEveryXHybridNodesIsRF 2
config sim-time-limit 800s
config **.endSimTime 50000
config **.uniform_d true
config **.fixedArch false
config **.recordDLMSCOSEMAppMsgRoundtripLatency true
config **.recordDLMSCOSEMAppMsgLatency false
config **.recordDLMSCOSEMAppTTRAllMeters true
config **.record_app_roundtrip true
config **.record_PRO_Num_Switches true
config **.record_REG true
config **.printLog false
config **.PLC_BN.mac.DEFAULT_ALV_TIME 120
config **.BER_SIM -1.0
config **.PLC_SN[*].mac.DEFAULT_COMMUNICATION_MODE 0
config **.PLC_SN[*].mac.RANDOM_REGISTRATION_NUMBER 10
config **.PLC_SN[*].mac.RANDOM_REGISTRATION false
config **.PLC_SN[*].mac.ALV_OFFSET 60
config **.PLC_SN[*].mac.SWITCH_CAPABILITY true
config **.mac.PRN_WAIT_TIME 30
config **.interAppMsgTime 10.0
config **.firstAppMsgAt 300.0
config **.PLC_BN.mac.promotionNode_EUI48 -1
config **.PLC_BN.mac.promotionNode_2ndLevel_EUI48 -1
config **.ctrlIndComMode 0
config **.initialIndComMode 0
config **.usePRM true
config **.interPromotionTime 200
config **.appBlockBehaviour true
config **.AppReqMsgSize_Bytes 70
config **.AppResMsgSize_Bytes 232
config **.AppGetReqSize_Bytes 71
config **.AppGetReqNextSize_Bytes 14
config **.AppResBlockSize_Bytes 512
config **.AppProcessingTime 0.5
config **.llc.llcReTxTimer 10
config **.PLC_SN[*].mac.allowSwitchIfDBPSK_FEC true
config **.PLC_SN[*].mac.refreshSwitchPower false
config **.PLC_SN[*].mac.numDisconnectionsBeforePRN 5
config **.alvNChances 3
config **.plcBus[*].impulsive false
config **.sequentialPollingInterval 9
config **.useSequentialPolling true
config **.sendALV true
config **.appTimeOut 50
config **.txQueueLimit 10000
config warmup-period 5s
config **.llc.CIMTUSizeBytes 256
config **.llc.CIMTUSizeBits 2048
config **.llc.defaultWindowSize 1
config **.appBehavior 2001
config **.nBranches 1
config **.PLC_SN[*].mac.CAP_CFP false
config **.PLC_SN[*].llc.CAP_CFP false
config **.PLC_BN.mac.policy 1
config **.plcBus[*].nullAttenuation false
config **.nHostsPerBranch 5
config **.attFileAddress "\"topologiasLINTER/att/LossMat6Nodos_100mTotDist.txt\""
config **.CAP_CFP_NUM_SN -1
config **.busLength 100
config **.busLengthForRadios 100
config **.verticalDistanceBetweenBuses 20
config **.positions "\"25 38 37\""
config **.archFileAddress "\"\""

vector 0 HybridMeter_Net.PLC_BN.mac PLCAccessDelay ETV
vector 1 HybridMeter_Net.PLC_SN[0].mac I_received_BCN ETV
vector 2 HybridMeter_Net.PLC_SN[0].mac I_sent_REG_REQ ETV
vector 3 HybridMeter_Net.PLC_SN[1].mac I_received_BCN ETV
vector 4 HybridMeter_Net.PLC_SN[1].mac I_sent_REG_REQ ETV
vector 5 HybridMeter_Net.PLC_SN[1].mac PLCTxAttemptsBeforeTx ETV
vector 6 HybridMeter_Net.PLC_SN[1].mac PLCAccessDelay ETV
vector 7 HybridMeter_Net.PLC_BN.mac PLCTxQueueLength ETV
vector 8 HybridMeter_Net.PLC_BN.mac PLCTxQueueLengthALV ETV
vector 9 HybridMeter_Net.PLC_BN.mac PLCTxAttemptsBeforeTx ETV
vector 10 HybridMeter_Net.PLC_BN.mac PLCNumRegNodes ETV
vector 11 HybridMeter_Net.PLC_BN.mac Registering_EUI48 ETV
vector 12 HybridMeter_Net.PLC_SN[0].mac PLCTxAttemptsBeforeTx ETV
vector 13 HybridMeter_Net.PLC_SN[0].mac PLCAccessDelay ETV
vector 14 HybridMeter_Net.PLC_SN[0].rflan.wlan.radio transmissionState:vector ETV
attr interpolationmode sample-hold
attr source transmissionStateChanged
attr title "Radio transmission state, vector"
vector 15 HybridMeter_Net.PLC_BN.rflan.wlan.radio receptionState:vector ETV
attr interpolationmode sample-hold
attr source receptionStateChanged
attr title "Radio reception state, vector"
vector 16 HybridMeter_Net.PLC_SN[1].rflan.wlan.radio receptionState:vector ETV
attr interpolationmode sample-hold
attr source receptionStateChanged
attr title "Radio reception state, vector"
vector 17 HybridMeter_Net.PLC_SN[2].rflan.wlan.radio receptionState:vector ETV
attr interpolationmode sample-hold
attr source receptionStateChanged
attr title "Radio reception state, vector"
vector 18 HybridMeter_Net.PLC_SN[3].rflan.wlan.radio receptionState:vector ETV
attr interpolationmode sample-hold
attr source receptionStateChanged
attr title "Radio reception state, vector"
vector 19 HybridMeter_Net.PLC_SN[4].rflan.wlan.radio receptionState:vector ETV
attr interpolationmode sample-hold
attr source receptionStateChanged
attr title "Radio reception state, vector"
vector 20 HybridMeter_Net.PLC_BN.rflan.wlan.radio transmissionState:vector ETV
attr interpolationmode sample-hold
attr source transmissionStateChanged
attr title "Radio transmission state, vector"
vector 21 HybridMeter_Net.PLC_SN[0].rflan.wlan.radio receptionState:vector ETV
attr interpolationmode sample-hold
attr source receptionStateChanged
attr title "Radio reception state, vector"
vector 22 HybridMeter_Net.PLC_SN[2].mac I_received_BCN ETV
vector 23 HybridMeter_Net.PLC_SN[2].mac I_sent_REG_REQ ETV
vector 24 HybridMeter_Net.PLC_SN[2].mac PLCTxAttemptsBeforeTx ETV
vector 25 HybridMeter_Net.PLC_SN[2].mac PLCAccessDelay ETV
vector 26 HybridMeter_Net.PLC_SN[2].rflan.wlan.radio transmissionState:vector ETV
attr interpolationmode sample-hold
attr source transmissionStateChanged
attr title "Radio transmission state, vector"
vector 27 HybridMeter_Net.PLC_SN[3].mac I_received_BCN ETV
vector 28 HybridMeter_Net.PLC_SN[3].mac I_sent_REG_REQ ETV
vector 29 HybridMeter_Net.PLC_SN[4].mac PLCMessagesWithErrors ETV
vector 30 HybridMeter_Net.PLC_SN[3].mac PLCTxAttemptsBeforeTx ETV
vector 31 HybridMeter_Net.PLC_SN[3].mac PLCAccessDelay ETV
vector 32 HybridMeter_Net.PLC_SN[4].mac I_received_BCN ETV
vector 33 HybridMeter_Net.PLC_SN[4].mac I_sent_REG_REQ ETV
vector 34 HybridMeter_Net.PLC_SN[4].mac PLCTxAttemptsBeforeTx ETV
vector 35 HybridMeter_Net.PLC_SN[4].mac PLCAccessDelay ETV
vector 36 HybridMeter_Net.PLC_SN[4].rflan.wlan.radio transmissionState:vector ETV
attr interpolationmode sample-hold
attr source transmissionStateChanged
attr title "Radio transmission state, vector"
vector 37 HybridMeter_Net.PLC_BN.mac PLCMessagesWithErrors ETV
vector 38 HybridMeter_Net.PLC_SN[4].mac PLC_Number_of_self_disconnections ETV
vector 39 HybridMeter_Net.PLC_BN.BNApp DLMSCOSEMAppTTRAllMeters ETV
vector 40 HybridMeter_Net.PLC_SN[0].SNApp app_roundtrip ETV
vector 41 HybridMeter_Net.PLC_BN.BNApp DLMSCOSEMAppMsgRoundtripLatency ETV
vector 42 HybridMeter_Net.PLC_BN.BNApp appMsg_bps ETV
vector 43 HybridMeter_Net.PLC_SN[1].SNApp app_roundtrip ETV
vector 44 HybridMeter_Net.PLC_SN[2].SNApp app_roundtrip ETV
vector 45 HybridMeter_Net.PLC_SN[3].SNApp app_roundtrip ETV
vector 46 HybridMeter_Net.PLC_SN[3].mac PLCTxQueueLength ETV
vector 47 HybridMeter_Net.PLC_SN[3].mac PLCTxQueueLengthALV ETV
vector 48 HybridMeter_Net.PLC_BN.mac PLCNumSwitches ETV
vector 49 HybridMeter_Net.PLC_BN.mac switch_nodes ETV
vector 50 HybridMeter_Net.PLC_SN[3].rflan.wlan.radio transmissionState:vector ETV
attr interpolationmode sample-hold
attr source transmissionStateChanged
attr title "Radio transmission state, vector"
vector 51 HybridMeter_Net.PLC_SN[4].SNApp app_roundtrip ETV
vector 52 HybridMeter_Net.PLC_SN[3].mac PLCMessagesWithErrors ETV
0	31	5	0
0	60	5.618241	0
0	89	6.236482	0
0	121	6.854723	0
0	188	6.895818507431	0.009730136896
0	281	6.96319862832	0.008331739113
0	345	6.986071728393	0.031204839186
0	411	7.112465586287	0.009468566916
0	515	7.175889313858	0.006444775975
0	553	7.186110658012	0.016666120129
0	629	7.472964	0
0	705	7.519240069346	0.009678049674
0	812	7.583477916492	0.00653190016
0	851	7.592382119729	0.015436103397
0	930	8.091205	0
0	1006	8.13033380602	0.007292374417
0	1107	8.195954142359	0.009133667163
0	1142	8.205091549348	0.018271074152
0	1213	8.709446	0
0	1257	9.055010193905	0.008106192204
0	1337	9.327687	0
0	1420	9.38848716776	0.048659400358
0	1491	9.945928	0
0	1536	10.532268583267	0.007824181174
0	1617	10.564169	0
0	1664	11.18241	0
0	1708	11.800651	0
0	1755	12.418892	0
0	1795	12.949481629882	0.010185278728
0	1866	13.037133	0
0	1913	13.655374	0
0	1960	14.273615	0
0	2004	14.891856	0
0	2053	15.510097	0
0	2097	16.128338	0
0	2146	16.746579	0
0	2193	17.36482	0
0	2237	17.983061	0
0	2286	18.601302	0
0	2330	19.219543	0
0	2377	19.837784	0
0	2424	20.456025	0
0	2468	21.074266	0
0	2517	21.692507	0
0	2561	22.310748	0
0	2610	22.928989	0
0	2657	23.54723	0
0	2701	24.165471	0
0	2751	24.783712	0
0	2833	25.401953	0
0	2880	26.020194	0
0	2929	26.638435	0
0	2973	27.256676	0
0	3020	27.874917	0
0	3064	28.493158	0
0	3111	29.111399	0
0	3158	29.72964	0
0	3202	30.347881	0
0	3251	30.966122	0
0	3295	31.584363	0
0	3344	32.202604	0
0	3391	32.820845	0
0	3435	33.439086	0
0	3482	34.057327	0
0	3526	34.675568	0
0	3573	35.293809	0
0	3622	35.91205	0
0	3666	36.530291	0
0	3713	37.148532	0
0	3757	37.766773	0
0	3804	38.385014	0
0	3851	39.003255	0
0	3896	39.621496	0
0	3983	40.239737	0
0	4027	40.857978	0
0	4074	41.476219	0
0	4121	42.09446	0
0	4165	42.712701	0
0	4212	43.330942	0
0	4256	43.949183	0
0	4305	44.567424	0
0	4352	45.185665	0
0	4396	45.803906	0
0	4445	46.422147	0
0	4489	47.040388	0
0	4536	47.658629	0
0	4585	48.27687	0
0	4629	48.895111	0
0	4676	49.513352	0
0	4720	50.131593	0
0	4767	50.749834	0
0	4816	51.368075	0
0	4860	51.986316	0
0	4907	52.604557	0
0	4951	53.222798	0
0	5000	53.841039	0
0	5050	54.45928	0
0	5132	55.077521	0
0	5179	55.695762	0
0	5223	56.314003	0
0	5270	56.932244	0
0	5317	57.550485	0
0	5361	58.168726	0
0	5408	58.786967	0
0	5452	59.405208	0
0	5499	60.023449	0
0	5546	60.64169	0
0	5590	61.259931	0
0	5637	61.878172	0
0	5681	62.496413	0
0	5728	63.114654	0
0	5777	63.732895	0
0	5821	64.351136	0
0	5868	64.969377	0
0	5912	65.587618	0
0	5959	66.205859	0
0	6006	66.8241	0
0	6050	67.442341	0
0	6097	68.060582	0
0	6141	68.678823	0
0	6188	69.297064	0
0	6236	69.915305	0
0	6318	70.533546	0
0	6365	71.151787	0
0	6409	71.770028	0
0	6456	72.388269	0
0	6505	73.00651	0
0	6549	73.624751	0
0	6596	74.242992	0
0	6640	74.861233	0
0	6687	75.479474	0
0	6736	76.097715	0
0	6780	76.715956	0
0	6827	77.334197	0
0	6871	77.952438	0
0	6920	78.570679	0
0	6969	79.18892	0
0	7013	79.807161	0
0	7060	80.425402	0
0	7104	81.043643	0
0	7153	81.661884	0
0	7202	82.280125	0
0	7246	82.898366	0
0	7290	83.054612660939	0.007708659238
0	7367	83.347087332696	0.007259565294
0	7437	83.516607	0
0	7481	84.134848	0
0	7526	84.532792745764	0.008348343671
0	7606	84.753089	0
0	7653	85.37133	0
0	7735	85.989571	0
0	7784	86.607812	0
0	7824	86.948287169166	0.008990818012
0	7895	87.226053	0
0	7942	87.844294	0
0	7989	88.462535	0
0	8033	89.080776	0
0	8082	89.699017	0
0	8126	90.317258	0
0	8175	90.935499	0
0	8224	91.55374	0
0	8268	92.171981	0
0	8317	92.790222	0
0	8361	93.408463	0
0	8410	94.026704	0
0	8457	94.644945	0
0	8501	95.263186	0
0	8548	95.881427	0
0	8592	96.499668	0
0	8641	97.117909	0
0	8688	97.73615	0
0	8732	98.354391	0
0	8781	98.972632	0
0	8826	99.590873	0
0	8873	100.209114	0
0	8960	100.827355	0
0	9004	101.445596	0
0	9053	102.063837	0
0	9097	102.682078	0
0	9146	103.300319	0
0	9193	103.91856	0
0	9237	104.536801	0
0	9286	105.155042	0
0	9330	105.773283	0
0	9377	106.391524	0
0	9424	107.009765	0
0	9468	107.628006	0
0	9517	108.246247	0
0	9561	108.864488	0
0	9610	109.482729	0
0	9659	110.10097	0
0	9703	110.719211	0
0	9750	111.337452	0
0	9794	111.955693	0
0	9841	112.573934	0
0	9890	113.192175	0
0	9934	113.810416	0
0	9983	114.428657	0
0	10065	115.046898	0
0	10112	115.665139	0
0	10159	116.28338	0
0	10203	116.901621	0
0	10250	117.519862	0
0	10294	118.138103	0
0	10343	118.756344	0
0	10392	119.374585	0
0	10436	119.992826	0
0	10483	120.611067	0
0	10527	121.229308	0
0	10574	121.847549	0
0	10623	122.46579	0
0	10667	123.084031	0
0	10714	123.702272	0
0	10758	124.320513	0
0	10807	124.938754	0
0	10854	125.556995	0
0	10898	126.175236	0
0	10947	126.793477	0
0	10991	127.411718	0
0	11038	128.029959	0
0	11085	128.6482	0
0	11129	129.266441	0
0	11177	129.884682	0
0	11259	130.502923	0
0	11306	131.121164	0
0	11353	131.739405	0
0	11397	132.357646	0
0	11444	132.975887	0
0	11488	133.594128	0
0	11535	134.212369	0
0	11582	134.83061	0
0	11626	135.448851	0
0	11673	136.067092	0
0	11717	136.685333	0
0	11764	137.303574	0
0	11811	137.921815	0
0	11855	138.540056	0
0	11902	139.158297	0
0	11946	139.776538	0
0	11993	140.394779	0
0	12042	141.01302	0
0	12086	141.631261	0
0	12133	142.249502	0
0	12177	142.867743	0
0	12224	143.485984	0
0	12271	144.104225	0
0	12316	144.722466	0
0	12363	145.340707	0
0	12445	145.958948	0
0	12492	146.577189	0
0	12541	147.19543	0
0	12585	147.813671	0
0	12632	148.431912	0
0	12676	149.050153	0
0	12725	149.668394	0
0	12774	150.286635	0
0	12818	150.904876	0
0	12867	151.523117	0
0	12911	152.141358	0
0	12960	152.759599	0
0	13007	153.37784	0
0	13051	153.996081	0
0	13100	154.614322	0
0	13144	155.232563	0
0	13193	155.850804	0
0	13242	156.469045	0
0	13282	157.055362846403	0.008458844702
0	13363	157.087286	0
0	13407	157.350274915527	0.010447148125
0	13477	157.705527	0
0	13521	158.323768	0
0	13565	158.530603808565	0.006159406472
0	13645	158.942009	0
0	13693	159.56025	0
0	13775	160.178491	0
0	13824	160.796732	0
0	13864	160.946905106112	0.007608754958
0	13935	161.414973	0
0	13984	162.033214	0
0	14031	162.651455	0
0	14075	163.269696	0
0	14122	163.887937	0
0	14166	164.506178	0
0	14215	165.124419	0
0	14264	165.74266	0
0	14308	166.360901	0
0	14355	166.979142	0
0	14399	167.597383	0
0	14448	168.215624	0
0	14495	168.833865	0
0	14539	169.452106	0
0	14586	170.070347	0
0	14630	170.688588	0
0	14677	171.306829	0
0	14724	171.92507	0
0	14768	172.543311	0
0	14817	173.161552	0
0	14861	173.779793	0
0	14908	174.398034	0
0	14958	175.016275	0
0	15040	175.634516	0
0	15087	176.252757	0
0	15131	176.870998	0
0	15178	177.489239	0
0	15227	178.10748	0
0	15271	178.725721	0
0	15320	179.343962	0
0	15364	179.962203	0
0	15411	180.580444	0
0	15458	181.198685	0
0	15502	181.816926	0
0	15549	182.435167	0
0	15593	183.053408	0
0	15640	183.671649	0
0	15689	184.28989	0
0	15733	184.908131	0
0	15780	185.526372	0
0	15824	186.144613	0
0	15871	186.762854	0
0	15918	187.381095	0
0	15962	187.999336	0
0	16011	188.617577	0
0	16055	189.235818	0
0	16103	189.854059	0
0	16150	190.4723	0
0	16232	191.090541	0
0	16279	191.708782	0
0	16323	192.327023	0
0	16370	192.945264	0
0	16419	193.563505	0
0	16463	194.181746	0
0	16510	194.799987	0
0	16554	195.418228	0
0	16603	196.036469	0
0	16650	196.65471	0
0	16694	197.272951	0
0	16743	197.891192	0
0	16787	198.509433	0
0	16834	199.127674	0
0	16883	199.745915	0
0	16927	200.364156	0
0	16974	200.982397	0
0	17018	201.600638	0
0	17067	202.218879	0
0	17116	202.83712	0
0	17160	203.455361	0
0	17207	204.073602	0
0	17252	204.691843	0
0	17299	205.310084	0
0	17386	205.928325	0
0	17430	206.546566	0
0	17479	207.164807	0
0	17523	207.783048	0
0	17570	208.401289	0
0	17617	209.01953	0
0	17661	209.637771	0
0	17710	210.256012	0
0	17754	210.874253	0
0	17801	211.492494	0
0	17850	212.110735	0
0	17894	212.728976	0
0	17943	213.347217	0
0	17987	213.965458	0
0	18036	214.583699	0
0	18083	215.20194	0
0	18127	215.820181	0
0	18176	216.438422	0
0	18220	217.056663	0
0	18267	217.674904	0
0	18314	218.293145	0
0	18358	218.911386	0
0	18407	219.529627	0
0	18451	220.147868	0
0	18498	220.766109	0
0	18545	221.38435	0
0	18589	222.002591	0
0	18636	222.620832	0
0	18680	223.239073	0
0	18727	223.857314	0
0	18774	224.475555	0
0	18818	225.093796	0
0	18865	225.712037	0
0	18909	226.330278	0
0	18956	226.948519	0
0	19003	227.56676	0
0	19047	228.185001	0
0	19096	228.803242	0
0	19140	229.421483	0
0	19187	230.039724	0
0	19234	230.657965	0
0	19274	231.053970118706	0.007066117005
0	19355	231.276206	0
0	19399	231.346757424432	0.00692965703
0	19469	231.894447	0
0	19513	232.512688	0
0	19557	232.532234544457	0.007790142364
0	19637	233.130929	0
0	19686	233.74917	0
0	19730	234.367411	0
0	19774	234.949350671931	0.010054320777
0	19844	234.985652	0
0	19888	235.603893	0
0	19935	236.222134	0
0	19984	236.840375	0
0	20028	237.458616	0
0	20075	238.076857	0
0	20119	238.695098	0
0	20166	239.313339	0
0	20213	239.93158	0
0	20257	240.549821	0
0	20306	241.168062	0
0	20350	241.786303	0
0	20397	242.404544	0
0	20444	243.022785	0
0	20488	243.641026	0
0	20537	244.259267	0
0	20581	244.877508	0
0	20628	245.495749	0
0	20677	246.11399	0
0	20721	246.732231	0
0	20768	247.350472	0
0	20812	247.968713	0
0	20859	248.586954	0
0	20906	249.205195	0
0	21133	249.823436	0
0	21180	250.441677	0
0	21224	251.059918	0
0	21273	251.678159	0
0	21322	252.2964	0
0	21366	252.914641	0
0	21413	253.532882	0
0	21457	254.151123	0
0	21508	254.769364	0
0	21557	255.387605	0
0	21601	256.005846	0
0	21648	256.624087	0
0	21692	257.242328	0
0	21741	257.860569	0
0	21790	258.47881	0
0	21834	259.097051	0
0	21883	259.715292	0
0	21927	260.333533	0
0	21974	260.951774	0
0	22023	261.570015	0
0	22067	262.188256	0
0	22114	262.806497	0
0	22158	263.424738	0
0	22205	264.042979	0
0	22252	264.66122	0
0	22296	265.279461	0
0	22343	265.897702	0
0	22387	266.515943	0
0	22434	267.134184	0
0	22483	267.752425	0
0	22527	268.370666	0
0	22576	268.988907	0
0	22620	269.607148	0
0	22667	270.225389	0
0	22714	270.84363	0
0	22758	271.461871	0
0	22805	272.080112	0
0	22849	272.698353	0
0	22896	273.316594	0
0	22945	273.934835	0
0	22989	274.553076	0
0	23038	275.171317	0
0	23082	275.789558	0
0	23131	276.407799	0
0	23178	277.02604	0
0	23222	277.644281	0
0	23269	278.262522	0
0	23313	278.880763	0
0	23362	279.499004	0
0	23411	280.117245	0
0	23648	280.735486	0
0	23695	281.353727	0
0	23739	281.971968	0
0	23788	282.590209	0
0	23835	283.20845	0
0	23879	283.826691	0
0	23926	284.444932	0
0	23970	285.063173	0
0	24021	285.681414	0
0	24070	286.299655	0
0	24114	286.917896	0
0	24161	287.536137	0
0	24205	288.154378	0
0	24252	288.772619	0
0	24299	289.39086	0
0	24343	290.009101	0
0	24390	290.627342	0
0	24434	291.245583	0
0	24481	291.863824	0
0	24528	292.482065	0
0	24572	293.100306	0
0	24619	293.718547	0
0	24663	294.336788	0
0	24710	294.955029	0
0	24757	295.57327	0
0	24801	296.191511	0
0	24850	296.809752	0
0	24894	297.427993	0
0	24943	298.046234	0
0	24990	298.664475	0
0	25034	299.282716	0
0	25083	299.900957	0
0	25125	300.007178592945	0.007178592945
0	25209	300.11926747666	0.086120099146
0	25249	300.13094901178	0.097801634266
0	25370	300.182425893667	0.00687713487
0	25434	300.519198	0
0	25478	300.535906232294	0.360357473497
0	25567	300.751852523871	0.05631360074
0	25656	300.850986637753	0.05896493659
0	25700	301.137439	0
0	25751	301.328613616191	0.036591915028
0	25840	301.75568	0
0	25930	301.951800672591	0.046749659297
0	26019	302.033632309735	0.026280632648
0	26063	302.373921	0
0	26109	302.5158988244	0.008547147313
0	26183	302.579096227905	0.038631924119
0	26219	302.590672954355	0.050208650569
0	26327	302.992162	0
0	26412	303.134934509332	0.019115607443
0	26491	303.187384911473	0.025862948456
0	26530	303.610403	0
0	26580	303.73426733839	0.072745375373
0	26658	304.228644	0
0	26748	304.391490937514	0.08132393687
0	26827	304.545618550904	0.064461705673
0	26866	304.846885	0
0	26908	304.987844586199	0.006687740968
0	27138	305.465126	0
0	27184	305.478683919408	0.431779917707
0	27224	305.491486981212	0.15165921381
0	27338	305.64911798974	0.635121365232
0	27378	305.660069178269	0.646072553761
0	27507	305.712007553544	0.00715565533
0	27563	306.083367	0
0	27602	306.101236189819	0.396384291605
0	27691	306.275497038122	0.033939730327
0	27780	306.420058735732	0.077776436918
0	27820	306.533160052047	0.008715649954
0	27901	306.701608	0
0	27952	306.872476937634	0.03019463882
0	28041	307.319849	0
0	28136	307.540944075054	0.0758422682
0	28225	307.651145116202	0.024938854809
0	28269	307.93809	0
0	28311	308.132860107941	0.006653846548
0	28385	308.228548510742	0.069324594326
0	28421	308.241736576023	0.082512659607
0	28530	308.556331	0
0	28619	308.885490770246	0.076317534585
0	28695	308.999004636168	0.059708285014
0	28765	309.045729952953	0.108263257344
0	28803	309.174572	0
0	28849	309.460608625812	0.023141930203
0	28928	309.792813	0
0	29018	310.034651745802	0.051658542979
0	29097	310.137684006235	0.047508463981
0	29136	310.411054	0
0	29187	310.659198743166	0.069023200912
0	29468	311.029295	0
0	29558	311.286581701454	0.03556089819
0	29647	311.397724032532	0.056131419334
0	29691	311.647536	0
0	29741	311.890601140434	0.049008527236
0	29829	312.265777	0
0	29919	312.483039718741	0.027793564472
0	30008	312.585823182387	0.080107357924
0	30052	312.884018	0
0	30103	313.06335237878	0.057636554317
0	30182	313.502259	0
0	30272	313.700471519084	0.080122229977
0	30351	313.82125265373	0.079499904768
0	30390	314.1205	0
0	30436	314.329989409018	0.088236660056
0	30515	314.738741	0
0	30605	314.90895270498	0.034688845437
0	30685	315.075694314902	0.081241215317
0	30719	315.085843790999	15.052696413485
0	30796	315.182900681916	15.007351923119
0	30877	315.356982	0
0	30923	315.583537279489	0.089084179904
0	31016	315.975223	0
0	31110	316.164065172188	0.041769241686
0	31199	316.223902637851	0.02285604876
0	31242	316.593464	0
0	31292	316.776523012419	0.075476423328
0	31380	317.211705	0
0	31470	317.421481912457	0.089206491749
0	31559	317.490251349925	0.036131965899
0	31603	317.829946	0
0	31653	318.019406357068	0.065286973042
0	31731	318.448187	0
0	31816	318.606339607019	0.053830973608
0	31895	318.722376889389	0.049037166343
0	31934	319.066428	0
0	31984	319.197095222032	0.023755498986
0	32062	319.684669	0
0	32152	319.772694095671	0.05502144161
0	32231	319.877746781068	0.027084270067
0	32266	320.020062238098	15.00606561359
0	32347	320.30291	0
0	32393	320.391859141367	0.041196630366
0	32478	320.711748662881	15.006896764667
0	32562	320.921151	0
0	32653	321.052564397434	0.070311358216
0	32742	321.198092365102	0.061655686026
0	32785	321.539392	0
0	32831	321.690609718374	0.054173039298
0	32920	322.157633	0
0	33015	322.303407359732	0.04728193363
0	33104	322.463096213592	0.075285452218
0	33148	322.775874	0
0	33198	322.953454932312	0.065644170938
0	33276	323.394115	0
0	33361	323.567927665574	0.089526460454
0	33440	323.651097566774	0.029593608942
0	33479	324.012356	0
0	33530	324.148072846728	0.026568888896
0	33609	324.630597	0
0	33694	324.777218818808	0.084925928574
0	33773	324.918654372631	0.087054678414
0	33812	325.248838	0
0	33862	325.363546795827	0.03194710161
0	33950	325.867079	0
0	34044	325.984383008502	0.046034407279
0	34133	326.103436427477	0.058557202575
0	34176	326.48532	0
0	34222	326.633836158937	0.088956934035
0	34311	327.103561	0
0	34406	327.19526082546	0.018981185157
0	34495	327.323506651007	0.055410772467
0	34539	327.721802	0
0	34585	327.798447011362	0.030351132822
0	34706	328.340043	0
0	34754	328.404398038211	0.067431066878
0	34833	328.490737720812	0.065978514955
0	34875	328.958284	0
0	34923	329.015132208787	0.09037300293
0	35044	329.576525	0
0	35087	329.671995457363	0.122310397117
0	35166	329.79450905979	0.049712365575
0	35205	330.194766	0
0	35255	330.315688024784	0.070891330569
0	35343	330.813007	0
0	35433	330.927617512439	0.019915369673
0	35522	331.019579575071	0.021172904797
0	35566	331.431248	0
0	35616	331.531506178984	0.03309950871
0	35707	332.049489	0
0	35798	332.182556803273	0.087291765282
0	35887	332.302125746693	0.030532284899
0	35930	332.66773	0
0	35976	332.793700115098	0.022106653304
0	36055	333.285971	0
0	36145	333.395190569033	0.05688681885
0	36224	333.518237454536	0.057138275523
0	36263	333.904212	0
0	36309	333.985326758263	0.02422757925
0	36430	334.522453	0
0	36477	334.569433930963	0.056964357068
0	36556	334.673805092927	0.049331832399
0	36597	335.140694	0
0	36645	335.189979808349	0.065506547821
0	36780	335.758935	0
0	36824	335.852798660491	0.099311886868
0	36913	335.952422415908	0.023709555411
0	36957	336.377176	0
0	37007	336.447054657839	0.018341797342
0	37098	336.995417	0
0	37185	337.137008693494	0.082289142172
0	37274	337.248599669158	0.021193303277
0	37318	337.613658	0
0	37368	337.75972114363	0.032314777749
0	37446	338.231899	0
0	37536	338.396630718114	0.060228381062
0	37615	338.508754342869	0.077921940699
0	37654	338.85014	0
0	37700	339.00467658809	0.07384418592
0	37779	339.468381	0
0	37868	339.626519783287	0.044109705818
0	37947	339.747564010027	0.049531963615
0	37985	340.086622	0
0	38031	340.238440441464	0.040408395052
0	38120	340.704863	0
0	38214	340.840113353415	0.035927247396
0	38303	340.927687002872	0.045050391383
0	38346	341.323104	0
0	38396	341.409626851467	0.026990239978
0	38674	341.941345	0
0	38761	342.102238933468	0.079239277408
0	38850	342.273263130212	0.080804522278
0	38894	342.559586	0
0	38944	342.774722035499	0.082263427565
0	39022	343.177827	0
0	39107	343.388204520563	0.055226408434
0	39186	343.514206931771	0.07854972501
0	39225	343.796068	0
0	39276	343.980610129325	0.044952922564
0	39355	344.414309	0
0	39444	344.613920158892	0.041784658694
0	39523	344.732817284898	0.065418553708
0	39561	345.03255	0
0	39607	345.242916049463	0.075517318273
0	39696	345.650791	0
0	39790	345.866211436997	0.060549231863
0	39879	345.938909673565	0.020342012615
0	39922	346.269032	0
0	39972	346.503251230439	0.084683569489
0	40061	346.887273	0
0	40156	347.164920129936	0.078978069093
0	40245	347.280182616635	0.063545149715
0	40289	347.505514	0
0	40339	347.7922920504	0.07565458348
0	40417	348.123755	0
0	40502	348.437745514259	0.060448263965
0	40581	348.486986426828	0.026640922787
0	40620	348.741996	0
0	40670	349.023367324088	0.063021820047
0	40748	349.360237	0
0	40833	349.637617479593	0.064842264099
0	40912	349.780429299653	0.052196685603
0	40951	349.978478	0
0	41001	350.309163389652	0.080930775602
0	41089	350.596719	0
0	41183	350.902671450026	0.039210982466
0	41272	350.996213851031	0.034319309626
0	41315	351.21496	0
0	41361	351.549336136201	0.087441594796
0	41450	351.833201	0
0	41545	352.136034877178	0.05906490303
0	41634	352.287162175421	0.072314893057
0	41678	352.451442	0
0	41724	352.743759697961	0.028912415597
0	41803	353.069683	0
0	41892	353.376686641197	0.051276888916
0	41971	353.512530724755	0.06049279953
0	42009	353.687924	0
0	42059	354.030888914474	0.078850989249
0	42137	354.306165	0
0	42222	354.635717222219	0.030537929137
0	42301	354.683175757371	0.020667287133
0	42340	354.924406	0
0	42391	355.237888912614	0.075380442376
0	42480	355.542647	0
0	42570	355.842011271303	0.051983949826
0	42659	355.920877173434	0.037432334614
0	42703	356.160888	0
0	42753	356.464095224827	0.080650386007
0	42841	356.779129	0
0	42935	357.060884216829	0.059637250226
0	43024	357.14130092353	0.058948159704
0	43067	357.39737	0
0	43113	357.609284932315	0.026932168489
0	43192	358.015611	0
0	43282	358.255023589801	0.082018146117
0	43361	358.357208610716	0.035158652484
0	43400	358.633852	0
0	43446	358.873888456197	0.051838497965
0	43525	359.252093	0
0	43614	359.4745548738	0.064079770846
0	43693	359.534427689054	0.018698396842
0	43731	359.870334	0
0	43781	360.046314685836	0.030585393624
0	43869	360.488575	0
0	43959	360.665797400955	0.071970720577
0	44048	360.741477837016	0.024180295241
0	44092	361.106816	0
0	44142	361.241351001519	0.024053459744
0	44230	361.725057	0
0	44320	361.856855186332	0.079531574018
0	44409	361.987315703751	0.069487235148
0	44453	362.343298	0
0	44503	362.446432322582	0.028603853979
0	44584	362.961539	0
0	44671	363.092791561839	0.088186260688
0	44750	363.225453070168	0.055060237174
0	44789	363.57978	0
0	44835	363.71946120666	0.049068373666
0	44914	364.198021	0
0	45004	364.307189436508	0.043608128366
0	45083	364.371042399393	0.027339173598
0	45122	364.816262	0
0	45168	364.902543803314	0.058840577519
0	45303	365.434503	0
0	45351	365.466727557927	0.036598633302
0	45440	365.606977007274	0.0842947682
0	45486	366.052744	0
0	45533	366.08776081566	0.065078576586
0	45667	366.670985	0
0	45711	366.702369661851	0.037689967837
0	45800	366.811520632053	0.03974456574
0	45847	367.289226	0
0	45895	367.358712786757	0.086936720444
0	46016	367.907467	0
0	46059	367.996567584018	0.111313497919
0	46138	368.124628131609	0.070279593787
0	46177	368.525708	0
0	46227	368.625581320899	0.071232783077
0	46308	369.143949	0
0	46395	369.248049100319	0.056725866234
0	46474	369.304976048433	0.036573680315
0	46513	369.76219	0
0	46559	369.830548118484	0.062145750366
0	46651	370.380431	0
0	46743	370.515340999742	0.085427640474
0	46832	370.638075570506	0.040986974199
0	46876	370.998672	0
0	46922	371.169677428178	0.072588831871
0	47011	371.616913	0
0	47105	371.743478118075	0.03670192796
0	47194	371.87346812384	0.041235184886
0	47237	372.235154	0
0	47485	372.530187168621	0.197954229667
0	47564	372.853395	0
0	47649	373.140274785531	0.059304294024
0	47728	373.28119173648	0.06436224859
0	47767	373.471636	0
0	47817	373.796004952105	0.079175464215
0	47895	374.089877	0
0	47980	374.374319894209	0.039820764229
0	48059	374.443545094939	0.035390035334
0	48098	374.708118	0
0	48148	374.993986998868	0.085831939263
0	48236	375.326359	0
0	48331	375.639858160419	0.082144227107
0	48420	375.781295941703	0.070173217804
0	48464	375.9446	0
0	48510	376.281835972989	0.07071324909
0	48599	376.562841	0
0	48693	376.904988647883	0.069016954708
0	48782	377.004298753799	0.026138653982
0	48825	377.181082	0
0	48875	377.557443386043	0.079283286226
0	48954	377.799323	0
0	49043	378.155902840807	0.072409336958
0	49122	378.255045835805	0.075792758405
0	49160	378.417564	0
0	49210	378.767491698849	0.088238621449
0	49288	379.035805	0
0	49328	379.053511870968	0.006607869267
0	49447	379.342213163557	0.002385396155
0	49517	379.387971586099	0.062361042765
0	49596	379.455141833312	0.037755627394
0	49635	379.654046	0
0	49685	379.98667629852	0.069290092602
0	49773	380.272287	0
0	49816	380.533085973873	0.00864157178
0	49941	380.759064384464	0.05056795712
0	50031	380.890528	0
0	50079	380.937331016193	0.125531544937
0	50125	381.386017135917	0.074217664661
0	50214	381.508769	0
0	50308	382.004399990305	0.028515010641
0	50397	382.107369537649	0.038024028614
0	50440	382.12701	0
0	50486	382.657917998123	0.088572489088
0	50527	382.745251	0
0	50609	382.948661412321	0.009365061167
0	50721	383.24576524447	0.04282955312
0	50800	383.363492	0
0	50843	383.403329049532	0.083258408891
0	50884	383.903377670296	0.083307029655
0	50963	383.981733	0
0	51053	384.479312058899	0.020139508247
0	51132	384.593977046652	0.040662668245
0	51171	384.599974	0
0	51221	385.114872537417	0.06155815901
0	51309	385.218215	0
0	51399	385.775382017867	0.088243097787
0	51488	385.836456	0
0	51536	385.8935880521	0.063977659386
0	51582	386.377179039231	0.047568646517
0	51670	386.454697	0
0	51760	386.995365515864	0.076182374599
0	51849	387.070504637971	0.034028945436
0	51892	387.072938	0
0	51944	387.592039658278	0.055563965743
0	52023	387.691179	0
0	52112	388.238274261544	0.071389052942
0	52191	388.30942	0
0	52234	388.343206224728	0.076998803557
0	52275	388.7963129813	0.030105560129
0	52354	388.927661	0
0	52444	389.35749010827	0.025473696239
0	52523	389.470969683752	0.045074677603
0	52562	389.545902	0
0	52608	390.004754551919	0.07885954577
0	52697	390.164143	0
0	52791	390.62009663719	0.071302111967
0	52880	390.766838418471	0.059023679307
0	52923	390.782384	0
0	52973	391.284468336965	0.076653597801
0	53061	391.400625	0
0	53151	391.909091700071	0.057214465218
0	53241	392.018866	0
0	53289	392.087577705499	0.115158388664
0	53335	392.516498131475	0.04407881464
0	53414	392.637107	0
0	53499	393.125945620883	0.04731878449
0	53578	393.240915639967	0.065517938826
0	53617	393.255348	0
0	53668	393.744122750453	0.068725049312
0	53747	393.873589	0
0	53836	394.313942626947	0.022332260621
0	53915	394.420995108392	0.048553150108
0	53953	394.49183	0
0	53999	394.944860794508	0.072418836224
0	54088	395.110071	0
0	54182	395.592334126808	0.052611958542
0	54271	395.641324517322	0.021307101226
0	54314	395.728312	0
0	54360	396.1559332163	0.035915800204
0	54449	396.346553	0
0	54543	396.754447086014	0.023854336946
0	54632	396.900793464558	0.077205603876
0	54675	396.964794	0
0	54726	397.34220693141	0.018619070728
0	54805	397.583035	0
0	54890	397.977990075172	0.056299824924
0	54969	398.103331672916	0.067521157355
0	55008	398.201276	0
0	55058	398.624622440352	0.088811924791
0	55136	398.819517	0
0	55221	399.20809174703	0.059583377697
0	55300	399.32173538291	0.05938122252
0	55339	399.437758	0
0	55389	399.781166456919	0.018812296529
0	55477	400.055999	0
0	55571	400.461715552082	0.086377243333
0	55660	400.579565419023	0.041386633713
0	55703	400.67424	0
0	55749	401.080281542974	0.042102757664
0	55838	401.292481	0
0	55932	401.711614124591	0.054824448383
0	56021	401.85389498019	0.067098198643
0	56064	401.910722	0
0	56110	402.347099965289	0.060303183742
0	56189	402.528963	0
0	56278	402.929778558959	0.024356919944
0	56357	403.038290360854	0.032668109
0	56395	403.147204	0
0	56625	403.594091151938	0.088468900084
0	56703	403.765445	0
0	56788	404.162454339434	0.033216722374
0	56867	404.255570304758	0.041497513254
0	56906	404.383686	0
0	56957	404.756921870455	0.042849078951
0	57046	405.001927	0
0	57136	405.325731560956	0.01892476424
0	57225	405.43066842012	0.068639829504
0	57269	405.620168	0
0	57320	405.89988551921	0.037856928594
0	57409	406.238409	0
0	57504	406.513596139846	0.085436285865
0	57593	406.585195053156	0.018195390153
0	57637	406.85665	0
0	57683	407.143530402718	0.076530739715
0	57762	407.474891	0
0	57851	407.704017989897	0.025606534927
0	57930	407.824363625848	0.066608281221
0	57968	408.093132	0
0	58014	408.279036288045	0.021280943418
0	58097	408.711373	0
0	58186	408.905441142254	0.078073188436
0	58265	409.008013265954	0.02692417645
0	58303	409.329614	0
0	58353	409.568478117243	0.087389027739
0	58441	409.947855	0
0	58531	410.233422414878	0.082509656882
0	58620	410.346998633755	0.0887291257
0	58664	410.566096	0
0	58714	410.824913750647	0.066644242592
0	58802	411.184337	0
0	58892	411.423188206532	0.052946412942
0	58981	411.585374632376	0.088717413366
0	59025	411.802578	0
0	59075	412.085382869714	0.088725650704
0	59153	412.420819	0
0	59243	412.695550861327	0.069530554731
0	59322	412.78442637197	0.033502446337
0	59361	413.03906	0
0	59407	413.303645369107	0.052721443474
0	59486	413.657301	0
0	59575	413.971412077461	0.087519607096
0	59654	414.084619070161	0.069906325347
0	59692	414.275542	0
0	59738	414.585269316636	0.070556571822
0	59827	414.893783	0
0	59922	415.223808237505	0.071335615103
0	60011	415.31511052017	0.050838938372
0	60055	415.512024	0
0	60105	415.795780507307	0.031508925509
0	60193	416.130265	0
0	60283	416.375102348592	0.05529912864
0	60372	416.439178220241	0.035373674912
0	60416	416.748506	0
0	60466	416.931441878071	0.027637332742
0	60544	417.366747	0
0	60629	417.501426873378	0.040045931149
0	60708	417.587747011641	0.02328373385
0	60747	417.984988	0
0	60797	418.126359088905	0.061895811114
0	60875	418.603229	0
0	60965	418.7816923181	0.076719151537
0	61044	418.882986620013	0.067396588399
0	61083	419.22147	0
0	61129	419.359420468974	0.04383043736
0	61218	419.839711	0
0	61312	419.96683480736	0.05202201031
0	61401	420.073888530124	0.043861815598
0	61444	420.457952	0
0	61490	420.567664566527	0.037637852001
0	61582	421.076193	0
0	61673	421.18409414651	0.072015091186
0	61762	421.337186194929	0.089372793052
0	61805	421.694434	0
0	61855	421.767419235677	0.0196058338
0	61975	422.312675	0
0	62018	422.34977286057	0.056419863646
0	62097	422.455808741628	0.052861996124
0	62139	422.930916	0
0	62187	423.014215289708	0.111268544204
0	62269	423.549157	0
0	62351	423.718742420202	0.073502286122
0	62430	423.859836264953	0.080673232141
0	62469	424.167398	0
0	62519	424.32074913571	0.041586102898
0	62607	424.785639	0
0	62702	424.990889582768	0.082374753711
0	62791	425.109561703647	0.036574403245
0	62835	425.40388	0
0	62881	425.628854888314	0.055867587912
0	62970	426.022121	0
0	63064	426.271874310134	0.086572145858
0	63153	426.431617228605	0.083661900728
0	63196	426.640362	0
0	63242	426.937006470109	0.089051142232
0	63321	427.258603	0
0	63411	427.565048328781	0.059929158309
0	63490	427.686679519123	0.064579649961
0	63529	427.876844	0
0	63579	428.159245172106	0.037145302944
0	63657	428.495085	0
0	63742	428.716669338262	0.023484580886
0	63821	428.844026239291	0.061730027313
0	63860	429.113326	0
0	63910	429.344822344862	0.062526132884
0	63998	429.731567	0
0	64088	429.952795926138	0.039850840619
0	64177	430.071367874259	0.059629652004
0	64221	430.349808	0
0	64271	430.596431915807	0.084693693552
0	64359	430.968049	0
0	64454	431.238407173737	0.058818060632
0	64543	431.380470384968	0.079313396394
0	64587	431.58629	0
0	64633	431.836450086509	0.035293097935
0	64712	432.204531	0
0	64801	432.503181898336	0.086178797369
0	64880	432.607234417393	0.072741468441
0	64918	432.822772	0
0	64964	433.064937217517	0.030444268565
0	65043	433.441013	0
0	65132	433.660093621451	0.034117655261
0	65211	433.703022730572	0.019703699625
0	65249	434.059254	0
0	65494	434.342396404905	0.159077373958
0	65582	434.677495	0
0	65672	434.921534541914	0.021728541379
0	65761	435.017509624119	0.061405402811
0	65805	435.295736	0
0	65855	435.540746805496	0.084642584188
0	65943	435.913977	0
0	66033	436.128837722317	0.046016405432
0	66122	436.296260528495	0.082516107514
0	66166	436.532218	0
0	66217	436.772632646303	0.058888225322
0	66296	437.150459	0
0	66385	437.357621549016	0.019357005441
0	66464	437.405424464855	0.020475186124
0	66502	437.7687	0
0	66548	437.916548987209	0.031599708478
0	66627	438.386941	0
0	66717	438.499813810869	0.052537421155
0	66796	438.59119978512	0.025680176666
0	66835	439.005182	0
0	66881	439.132564804982	0.067045196528
0	66974	439.623423	0
0	67068	439.701039144913	0.02445774066
0	67157	439.81996926198	0.043780653694
0	67200	440.241664	0
0	67251	440.330855401225	0.054666792939
0	67343	440.859905	0
0	67430	440.967278187375	0.064206838357
0	67519	441.034200176313	0.030119618895
0	67563	441.478146	0
0	67613	441.5930948804	0.089014322982
0	67691	442.096387	0
0	67776	442.19176096348	0.046262331421
0	67855	442.363055141185	0.08877139087
0	67894	442.714628	0
0	67945	442.850041746443	0.075757996128
0	68024	443.332869	0
0	68114	443.412249472678	0.025405209408
0	68193	443.485542115101	0.041399468303
0	68235	443.95111	0
0	68278	444.010262745512	0.066120098714
0	68414	444.569351	0
0	68461	444.641646748744	0.090364398235
0	68550	444.809579498753	0.083370808735
0	68593	445.187592	0
0	68639	445.303718572087	0.077509882069
0	68728	445.805833	0
0	68823	445.896286809435	0.020139345877
0	68912	446.032093546968	0.068589651637
0	68956	446.424074	0
0	69007	446.503283400889	0.039779505558
0	69089	447.042315	0
0	69171	447.17333401455	0.053556294725
0	69250	447.270968733356	0.028946898513
0	69289	447.660556	0
0	69339	447.767194391363	0.02517255652
0	69420	448.278797	0
0	69502	448.462001012832	0.088086924937
0	69581	448.603957986257	0.073625877085
0	69620	448.897038	0
0	69670	449.049279933185	0.018947824013
0	69758	449.515279	0
0	69812	449.579875660386	0.007818163275
0	69879	449.603470863018	0.009213322903
0	69993	449.730544265082	0.04862056627
0	70082	449.810020896107	0.04892854111
0	70126	450.13352	0
0	70267	450.212270579285	0.008684971799
0	70658	450.588293308758	0.327200953761
0	70747	450.751761	0
0	70868	451.203264266847	0.054003071306
0	70914	451.288554739811	0.008688472254
0	71115	451.370002	0
0	71194	451.460543975954	0.108943691858
0	71240	451.919273829752	0.067673545656
0	71319	451.988243	0
0	71435	452.50817281706	0.041677696967
0	71515	452.606484	0
0	71594	452.689871406828	0.120110467359
0	71629	453.05565738189	0.008753380189
0	71712	453.102837028935	0.033076089466
0	71791	453.224725	0
0	71862	453.350147960493	0.010320193091
0	71974	453.746722556993	0.066661018794
0	72054	453.842966	0
0	72133	453.930012206291	0.10921343696
0	72174	454.390672801566	0.069874032235
0	72263	454.461207	0
0	72334	454.531241909107	0.006797507014
0	72461	455.039865849561	0.061652282977
0	72551	455.079448	0
0	72630	455.186109652105	0.122515259128
0	72676	455.616404941728	0.052810548751
0	72765	455.697689	0
0	72886	456.252342710928	0.05001343353
0	72976	456.31593	0
0	73055	456.416416128035	0.136529830616
0	73101	456.86767588067	0.087789583251
0	73142	456.934171	0
0	73213	456.961688947681	0.022392596527
0	73363	457.507308660272	0.080935687213
0	73403	457.552412	0
0	73522	457.66530025452	0.073916947782
0	73563	458.141253421785	0.049870115047
0	73604	458.170653	0
0	73758	458.689576817096	0.026826518173
0	73838	458.788894	0
0	73917	458.855248666471	0.119895686304
0	73954	459.2433313638	0.007978383633
0	74109	459.34963093952	0.047025003266
0	74146	459.360416229135	0.057810292881
0	74263	459.407135	0
0	74656	460.022319003668	0.020386605825
0	74698	460.025376	0
0	74904	460.307794657728	0.024981003103
0	74990	460.643617	0
0	75067	460.87031114813	0.087497493505
0	75235	461.261858	0
0	75398	461.586699976258	0.03926172363
0	75566	461.772045117007	0.083636760733
0	75652	461.880099	0
0	75728	462.49834	0
0	75808	463.116581	0
0	75883	463.734822	0
0	75963	464.353063	0
0	76038	464.971304	0
0	76118	465.589545	0
0	76193	466.207786	0
0	76273	466.826027	0
0	76348	467.444268	0
0	76428	468.062509	0
0	76503	468.68075	0
0	76583	469.298991	0
0	76658	469.917232	0
0	76738	470.535473	0
0	76813	471.153714	0
0	76893	471.771955	0
0	76970	472.255671373125	0.067263016851
0	77059	472.390196	0
0	77185	472.866206646126	0.084593196192
0	77274	472.961742100908	0.071751750696
0	77318	473.008437	0
0	77395	473.448805983402	0.05881563319
0	77484	473.626678	0
0	77610	474.073029605833	0.057840481982
0	77699	474.17741513909	0.01853398567
0	77743	474.244919	0
0	77820	474.696732452045	0.037851298625
0	77899	474.86316	0
0	78020	475.289228404256	0.030947467465
0	78099	475.455116385679	0.088653285246
0	78138	475.481401	0
0	78215	475.929851994519	0.063388894086
0	78294	476.099642	0
0	78415	476.589184499253	0.072751689436
0	78494	476.690741684212	0.056553599775
0	78533	476.717883	0
0	78610	477.190396081759	0.056207997322
0	78699	477.336124	0
0	78825	477.815814831477	0.047542743688
0	78914	477.922850040421	0.070944666536
0	78958	477.954365	0
0	79035	478.433755037207	0.081849663322
0	79124	478.572606	0
0	79250	478.984554176358	0.027004469092
0	79339	479.056699538541	0.047671204956
0	79383	479.190847	0
0	79460	479.538228145897	0.029199812312
0	79539	479.809088	0
0	79660	480.115855803893	0.053784737203
0	79739	480.213164244936	0.063209834096
0	79778	480.427329	0
0	79855	480.680132062121	0.030177651281
0	79934	481.04557	0
0	80055	481.302021969502	0.062264509656
0	80134	481.402730426932	0.048321984987
0	80169	481.612310079533	0.006347061713
0	80240	481.663811	0
0	80317	481.899295711237	0.044887269292
0	80485	482.282052	0
0	80648	482.578038467345	0.038054905188
0	80816	482.841718762668	0.018755637288
0	80902	482.900293	0
0	80979	483.403504554571	0.080541429191
0	81067	483.518534	0
0	81310	484.072110814803	0.053619281614
0	81397	484.136775	0
0	81553	484.352450080577	0.049651155195
0	81639	484.755016	0
0	81720	485.373257	0
0	81795	485.991498	0
0	81875	486.609739	0
0	81950	487.22798	0
0	82030	487.846221	0
0	82105	488.464462	0
0	82185	489.082703	0
0	82260	489.700944	0
0	82340	490.319185	0
0	82415	490.937426	0
0	82495	491.555667	0
0	82570	492.173908	0
0	82650	492.792149	0
0	82725	493.41039	0
0	82805	494.028631	0
0	82880	494.646872	0
0	82962	494.822582794532	0.01978386915
0	83051	495.265113	0
0	83172	495.429746570123	0.064006445103
0	83261	495.520511861638	0.062156043856
0	83305	495.883354	0
0	83387	496.024966354329	0.066610536547
0	83476	496.501595	0
0	83597	496.625095749265	0.07664652621
0	83686	496.694006619188	0.024315662374
0	83730	497.119836	0
0	83812	497.258142780173	0.088451823359
0	83891	497.738077	0
0	84007	497.879910701016	0.0601108988
0	84086	498.02060082154	0.088483449817
0	84125	498.356318	0
0	84207	498.480804207067	0.048686835344
0	84286	498.974559	0
0	84402	499.080650740645	0.023447887039
0	84481	499.178009623591	0.064059155188
0	84520	499.5928	0
0	84602	499.66692011881	0.052969650407
0	84694	500.211041	0
0	84812	500.308052141274	0.034073842409
0	84901	500.428693866963	0.06958138253
0	84945	500.829282	0
0	85027	500.914231423234	0.055118938801
0	85119	501.447523	0
0	85237	501.544316121981	0.022423134212
0	85326	501.648781418717	0.055171188562
0	85370	502.065764	0
0	85452	502.129103489013	0.035493258858
0	85534	502.684005	0
0	85647	502.791966399116	0.049599671257
0	85726	502.931984013901	0.071368429456
0	85765	503.302246	0
0	85847	503.389127756186	0.028512171741
0	85929	503.920487	0
0	86042	504.037279092418	0.036873321569
0	86121	504.147070454915	0.029735885897
0	86160	504.538728	0
0	86242	504.684179722483	0.066845153465
0	86410	505.156969	0
0	86568	505.473546086308	0.052061040926
0	86736	505.672380236139	0.05594399143
0	86822	505.77521	0
0	86904	506.136285193252	0.019848948543
0	87030	506.282303587727	0.009673903241
0	87139	506.393451	0
0	87297	506.869444025333	0.030528858919
0	87426	507.011692	0
0	87545	507.116274131902	0.025695631826
0	87632	507.629933	0
0	87707	508.248174	0
0	87787	508.866415	0
0	87862	509.484656	0
0	87942	510.102897	0
0	88017	510.721138	0
0	88097	511.339379	0
0	88172	511.95762	0
0	88252	512.575861	0
0	88327	513.194102	0
0	88407	513.812343	0
0	88482	514.430584	0
0	88562	515.048825	0
0	88637	515.667066	0
0	88717	516.285307	0
0	88792	516.903548	0
0	88872	517.521789	0
0	88949	517.660169204682	0.069590704606
0	89038	518.14003	0
0	89164	518.24458999063	0.022718471646
0	89253	518.301657025356	0.035694611146
0	89297	518.758271	0
0	89374	518.817400340219	0.051437926009
0	89509	519.376512	0
0	89589	519.447439416942	0.077511807258
0	89678	519.612057386272	0.078411062191
0	89722	519.994753	0
0	89799	520.099626949999	0.065980625918
0	89881	520.612994	0
0	89999	520.707560444732	0.051133884726
0	90078	520.784129784029	0.030544709916
0	90117	521.231235	0
0	90194	521.308148132218	0.054563058105
0	90276	521.849476	0
0	90394	522.031437376172	0.087715832999
0	90473	522.165329945304	0.080524690206
0	90512	522.467717	0
0	90589	522.666701022396	0.081895767298
0	90678	523.085958	0
0	90804	523.252418240408	0.060330847859
0	90893	523.348725910699	0.041170044277
0	90937	523.704199	0
0	91014	523.860516558246	0.052960691824
0	91103	524.32244	0
0	91229	524.510872866398	0.073280444412
0	91318	524.605702078535	0.028108637872
0	91362	524.940681	0
0	91439	525.106147283551	0.028553842888
0	91514	525.288399731494	0.008533463937
0	91666	525.558922	0
0	91787	525.68949680954	0.026671763997
0	91866	525.782095446776	0.018704666328
0	91905	526.177163	0
0	91982	526.324530465478	0.06113968503
0	92061	526.795404	0
0	92182	526.877776809646	0.021743957436
0	92261	526.961632449579	0.050797296748
0	92296	527.055449670797	0.008545669096
0	92373	527.347285732886	0.007457965484
0	92447	527.413645	0
0	92521	527.517494594953	0.106659442122
0	92689	528.031886	0
0	92852	528.22876820885	0.087975374753
0	93020	528.417305164558	0.04781010236
0	93102	528.533170352703	0.00872595061
0	93183	528.650127	0
0	93260	528.954834431009	0.085339368811
0	93428	529.268368	0
0	93591	529.637720563001	0.021664012616
0	93760	529.886609	0
0	93834	529.929229579929	0.087272296953
0	93921	530.50485	0
0	93997	530.947659298152	0.008362947
0	94068	531.123091	0
0	94143	531.741332	0
0	94223	532.359573	0
0	94298	532.977814	0
0	94378	533.596055	0
0	94453	534.214296	0
0	94533	534.832537	0
0	94608	535.450778	0
0	94688	536.069019	0
0	94763	536.68726	0
0	94843	537.305501	0
0	94918	537.923742	0
0	94998	538.541983	0
0	95073	539.160224	0
0	95153	539.778465	0
0	95231	540.396706	0
0	95310	540.487490019527	0.145532736551
0	95402	541.014947	0
0	95520	541.158772988116	0.057355871541
0	95609	541.260883968229	0.071173249121
0	95653	541.633188	0
0	95735	541.767519961149	0.077809242041
0	95824	542.251429	0
0	95945	542.446505203501	0.08671001879
0	96034	542.512714662847	0.032791557953
0	96078	542.86967	0
0	96160	543.054896398599	0.074973293705
0	96239	543.487911	0
0	96355	543.634189465816	0.018092972872
0	96434	543.775435907016	0.060564891984
0	96473	544.106152	0
0	96555	544.23604219509	0.021171180058
0	96634	544.724393	0
0	96750	544.817678950905	0.018759015036
0	96829	544.951703704622	0.054623285551
0	96868	545.342634	0
0	96950	545.436261942902	0.039181523831
0	97042	545.960875	0
0	97160	546.096547500491	0.065252262852
0	97249	546.269592625537	0.089091538517
0	97293	546.579116	0
0	97375	546.739266143368	0.058765056348
0	97464	547.197357	0
0	97585	547.340388039496	0.035426707351
0	97674	547.437881900838	0.042975008636
0	97718	547.815598	0
0	97800	547.944542700985	0.049635808783
0	97879	548.433839	0
0	97995	548.524037663362	0.05249839668
0	98074	548.665094225057	0.082109639215
0	98113	549.05208	0
0	98195	549.146853886017	0.063869300175
0	98277	549.670321	0
0	98390	549.750077970688	0.020890117083
0	98469	549.865786794406	0.025754145415
0	98508	550.288562	0
0	98590	550.399134228795	0.059101579804
0	98758	550.906803	0
0	98916	551.154000976719	0.047535896318
0	99084	551.345241109367	0.085487794504
0	99170	551.525044	0
0	99252	551.833774348806	0.074021033943
0	99420	552.143285	0
0	99578	552.589153156307	0.051277837336
0	99707	552.761526	0
0	99826	552.932589797036	0.066943690734
0	99913	553.379767	0
0	99988	553.998008	0
0	100068	554.616249	0
0	100143	555.23449	0
0	100219	555.613168161158	0.00720514334
0	100290	555.852731	0
0	100365	556.470972	0
0	100445	557.089213	0
0	100520	557.707454	0
0	100600	558.325695	0
0	100675	558.943936	0
0	100755	559.562177	0
0	100830	560.180418	0
0	100910	560.798659	0
0	100985	561.4169	0
0	101065	562.035141	0
0	101140	562.653382	0
0	101220	563.271623	0
0	101297	563.40289257049	0.037246464188
0	101386	563.889864	0
0	101512	564.028616354855	0.072559286051
0	101601	564.163952100562	0.080100426774
0	101645	564.508105	0
0	101722	564.650096947435	0.066245273647
0	101811	565.126346	0
0	101937	565.271177570043	0.053402921555
0	102026	565.331261299449	0.035095780385
0	102070	565.744587	0
0	102147	565.879081685868	0.082916166804
0	102226	566.362828	0
0	102347	566.46348889542	0.02193452348
0	102426	566.601328735454	0.06929435056
0	102465	566.981069	0
0	102542	567.115865089635	0.083830704741
0	102621	567.59931	0
0	102742	567.720632226788	0.03733194737
0	102821	567.84344215877	0.045584808655
0	102860	568.217551	0
0	102937	568.383941699545	0.08608434943
0	103026	568.835792	0
0	103152	569.022684846767	0.052016971593
0	103241	569.089957717373	0.042720796459
0	103285	569.454033	0
0	103362	569.57054937987	0.023312458956
0	103451	570.072274	0
0	103577	570.204531135806	0.045531162951
0	103666	570.326906441943	0.054291467075
0	103710	570.690515	0
0	103787	570.818962696144	0.046347721276
0	103866	571.308756	0
0	103987	571.395910498461	0.034020875158
0	104066	571.526740060897	0.085725189357
0	104105	571.926997	0
0	104182	572.02513927005	0.08412439851
0	104264	572.545238	0
0	104382	572.669222847263	0.077671346128
0	104461	572.755995528494	0.020271601191
0	104500	573.163479	0
0	104577	573.275808975118	0.040085047815
0	104745	573.78172	0
0	104908	573.965209999301	0.060905172153
0	105076	574.149994342769	0.029198020515
0	105162	574.399961	0
0	105239	574.69698373784	0.076187415586
0	105407	575.018202	0
0	105570	575.458354374085	0.052080999811
0	105739	575.636443	0
0	105813	575.67371548421	0.046746433627
0	105900	576.254684	0
0	105980	576.872925	0
0	106055	577.491166	0
0	106135	578.109407	0
0	106210	578.727648	0
0	106290	579.345889	0
0	106365	579.96413	0
0	106441	580.281399722726	0.008770038242
0	106512	580.582371	0
0	106587	581.200612	0
0	106667	581.818853	0
0	106742	582.437094	0
0	106822	583.055335	0
0	106897	583.673576	0
0	106977	584.291817	0
0	107052	584.910058	0
0	107132	585.528299	0
0	107210	586.14654	0
0	107289	586.201241197197	0.074272146614
0	107424	586.751074097184	0.020125863292
0	107469	586.764781	0
0	107588	586.884176688127	0.020723313582
0	107635	587.383022	0
0	107714	587.471494656846	0.108041282301
0	107806	588.001263	0
0	107924	588.165497517137	0.078565516694
0	108013	588.276293627141	0.068535992148
0	108057	588.619504	0
0	108139	588.759655020771	0.051897385778
0	108218	589.237745	0
0	108334	589.414614122044	0.082730478659
0	108413	589.568219680595	0.067783261318
0	108452	589.855986	0
0	108534	590.065739379768	0.065302960491
0	108613	590.474227	0
0	108729	590.694363312596	0.063620722039
0	108808	590.787932571055	0.034796484215
0	108847	591.092468	0
0	108929	591.340686161539	0.087550074699
0	109018	591.710709	0
0	109139	591.926113427104	0.027944742048
0	109228	591.971995714872	0.021841589861
0	109272	592.32895	0
0	109354	592.476392061555	0.026237936544
0	109443	592.947191	0
0	109564	593.118080027217	0.059763568487
0	109653	593.208850172903	0.047110866513
0	109697	593.565432	0
0	109779	593.709087174239	0.047347867849
0	109858	594.183673	0
0	109974	594.314826695243	0.057714656172
0	110053	594.441033819089	0.08915797385
0	110092	594.801914	0
0	110174	594.921039613104	0.069163767865
0	110253	595.420155	0
0	110369	595.548887124459	0.022894703534
0	110448	595.683154458819	0.084631733055
0	110487	596.038396	0
0	110569	596.177048460172	0.078525734408
0	110737	596.656637	0
0	110895	596.835340842628	0.065727828326
0	111063	597.003890020403	0.036437996352
0	111149	597.274878	0
0	111231	597.537454316264	0.070002292213
0	111399	597.893119	0
0	111557	598.285554839225	0.040149194393
0	111725	598.473173006632	0.036741672144
0	111810	598.51136	0
0	111892	599.129601	0
0	111963	599.286436188472	0.006569920915
0	112115	599.747842	0
0	112195	600.366083	0
0	112270	600.984324	0
0	112346	601.055510064446	0.008606062745
0	112423	601.34688803704	0.007060269638
0	112494	601.602565	0
0	112569	602.220806	0
0	112645	602.532508918433	0.00806451634
0	112726	602.839047	0
0	112801	603.457288	0
0	112881	604.075529	0
0	112956	604.69377	0
0	113032	604.948307477909	0.009011126759
0	113103	605.312011	0
0	113178	605.930252	0
0	113258	606.548493	0
0	113333	607.166734	0
0	113413	607.784975	0
0	113488	608.403216	0
0	113571	609.021457	0
0	113645	609.079502065236	0.143070730748
0	113737	609.639698	0
0	113860	609.755024778527	0.045369646888
0	113949	609.834464900505	0.020272811048
0	113993	610.257939	0
0	114070	610.346445579388	0.032253489931
0	114162	610.87618	0
0	114285	610.950201770919	0.026039272635
0	114374	611.052302380768	0.052791970589
0	114418	611.494421	0
0	114495	611.593224345261	0.093713935082
0	114577	612.112662	0
0	114695	612.278747863069	0.064281170433
0	114774	612.425824921764	0.057703640599
0	114813	612.730903	0
0	114890	612.92563611786	0.057514836695
0	114969	613.349144	0
0	115090	613.480226993461	0.02948491822
0	115169	613.610292919938	0.055820349081
0	115208	613.967385	0
0	115285	614.0794437473	0.024971176443
0	115377	614.585626	0
0	115500	614.686057881248	0.040431526539
0	115589	614.790625771988	0.083577618742
0	115633	615.203867	0
0	115710	615.298021738281	0.090973585035
0	115802	615.822108	0
0	115925	615.91298345438	0.025585611634
0	116014	616.004490521655	0.059617997932
0	116058	616.440349	0
0	116135	616.518101576091	0.073229052368
0	116217	617.05859	0
0	116335	617.225865110556	0.066370907564
0	116414	617.334273161585	0.022192428832
0	116453	617.676831	0
0	116530	617.86612763143	0.054046898677
0	116609	618.295072	0
0	116730	618.494945484859	0.082336617408
0	116809	618.618694593785	0.061493638408
0	116848	618.913313	0
0	116925	619.140170790015	0.082969834638
0	117093	619.531554	0
0	117256	619.880883323411	0.030195784273
0	117424	620.112939761143	0.066548546493
0	117509	620.149795	0
0	117587	620.578036596637	0.031645381987
0	117755	620.768036	0
0	117918	621.302062693757	0.021922761562
0	118005	621.386277	0
0	118161	621.594436692797	0.06214653511
0	118247	622.004518	0
0	118328	622.622759	0
0	118403	623.241	0
0	118483	623.859241	0
0	118558	624.477482	0
0	118638	625.095723	0
0	118713	625.713964	0
0	118793	626.332205	0
0	118868	626.950446	0
0	118948	627.568687	0
0	119023	628.186928	0
0	119103	628.805169	0
0	119178	629.42341	0
0	119254	629.613222620209	0.007259602393
0	119325	630.041651	0
0	119400	630.659892	0
0	119480	631.278133	0
0	119555	631.896374	0
0	119637	632.106643557014	0.074353399327
0	119726	632.514615	0
0	119847	632.740432198094	0.073111903605
0	119936	632.815743017234	0.043374957592
0	119980	633.132856	0
0	120062	633.342613539881	0.070245480239
0	120151	633.751097	0
0	120272	633.914714350167	0.020256531069
0	120361	634.03060800361	0.029984914744
0	120405	634.369338	0
0	120487	634.586173801349	0.085550712483
0	120566	634.987579	0
0	120682	635.208061984007	0.036497859588
0	120761	635.33462380877	0.07287477967
0	120800	635.60582	0
0	120882	635.840883012443	0.079133983343
0	120961	636.224061	0
0	121077	636.473547428169	0.075840882621
0	121156	636.532720915562	0.03500237047
0	121195	636.842302	0
0	121277	637.035156669858	0.037438124766
0	121366	637.460543	0
0	121487	637.662213564262	0.082681124592
0	121576	637.808804686141	0.08531520998
0	121620	638.078784	0
0	121702	638.294630164623	0.071140688462
0	121791	638.697025	0
0	121912	638.895825738673	0.039669534166
0	122001	638.98913487725	0.02172106317
0	122045	639.315266	0
0	122127	639.499518775194	0.032104961114
0	122206	639.933507	0
0	122322	640.049559040164	0.025928939886
0	122401	640.116528128951	0.047152605219
0	122440	640.551748	0
0	122522	640.601837488842	0.03246196511
0	122642	641.16408790014	0.029258799126
0	122682	641.169989	0
0	122796	641.253352360656	0.046779911959
0	122837	641.780030958099	0.073458509402
0	122879	641.78823	0
0	123088	642.406471	0
0	123243	642.583222967255	0.075013593426
0	123411	642.848557460302	0.058062420056
0	123497	643.024712	0
0	123579	643.336109822467	0.045614782221
0	123747	643.642953	0
0	123905	644.08163200469	0.049633908756
0	124073	644.256583476161	0.04392594048
0	124115	644.261194	0
0	124240	644.879435	0
0	124315	645.497676	0
0	124395	646.115917	0
0	124470	646.734158	0
0	124550	647.352399	0
0	124625	647.97064	0
0	124705	648.588881	0
0	124780	649.207122	0
0	124860	649.825363	0
0	124935	650.443604	0
0	125015	651.061845	0
0	125090	651.680086	0
0	125170	652.298327	0
0	125245	652.916568	0
0	125325	653.534809	0
0	125400	654.15305	0
0	125476	654.279355413988	0.006725729506
0	125550	654.771291	0
0	125624	654.807790793794	0.095133258113
0	125760	655.389532	0
0	125839	655.469262708199	0.12110946429
0	125928	655.577049878424	0.086436169014
0	125975	656.007773	0
0	126049	656.052153813391	0.061540103981
0	126141	656.626014	0
0	126264	656.755371756606	0.065408631485
0	126353	656.879288717249	0.032851006694
0	126397	657.244255	0
0	126474	657.386459110151	0.040021399596
0	126553	657.862496	0
0	126674	657.959133370256	0.035162476237
0	126753	658.046027901547	0.040751136258
0	126792	658.480737	0
0	126869	658.577721946609	0.07244518132
0	126951	659.098978	0
0	127069	659.179415685042	0.036628859966
0	127148	659.23559482895	0.024421752903
0	127190	659.717219	0
0	127264	659.766656347198	0.055483271151
0	127400	660.33546	0
0	127479	660.38269885287	0.080867107049
0	127568	660.497369544132	0.060132042058
0	127615	660.953701	0
0	127689	661.019021004106	0.081783502032
0	127781	661.571942	0
0	127904	661.675735926405	0.045352620246
0	127993	661.789468189379	0.081810955527
0	128037	662.190183	0
0	128114	662.269842774983	0.062185541131
0	128196	662.808424	0
0	128314	662.874855339627	0.025690215063
0	128393	662.917700260731	0.0183911078
0	128435	663.426665	0
0	128509	663.518825642891	0.11951648996
0	128591	664.044906	0
0	128709	664.17674614284	0.048960771921
0	128788	664.289829149132	0.0657675772
0	128827	664.663147	0
0	128904	664.752394910591	0.028333338659
0	129072	665.281388	0
0	129235	665.419461570582	0.020994261239
0	129403	665.61963650841	0.06732931236
0	129489	665.899629	0
0	129566	666.089548968475	0.037241772425
0	129734	666.51787	0
0	129897	666.794761884439	0.033883054965
0	130065	667.032853423818	0.036110594065
0	130151	667.136111	0
0	130227	667.754352	0
0	130307	668.372593	0
0	130382	668.990834	0
0	130462	669.609075	0
0	130537	670.227316	0
0	130617	670.845557	0
0	130692	671.463798	0
0	130772	672.082039	0
0	130847	672.70028	0
0	130923	673.28724562085	0.007379353293
0	131041	673.318521	0
0	131150	673.936762	0
0	131230	674.555003	0
0	131301	675.055904134208	0.009000132507
0	131382	675.173244	0
0	131458	675.349558620748	0.009730853346
0	131529	675.791485	0
0	131604	676.409726	0
0	131680	676.531472817328	0.007028415235
0	131761	677.027967	0
0	131838	677.516897173754	0.020154344001
0	131927	677.646208	0
0	132053	678.178902478638	0.068810191648
0	132142	678.264449	0
0	132217	678.316720647065	0.059269385129
0	132263	678.817256740778	0.059805478842
0	132352	678.88269	0
0	132428	678.945912075337	0.006615724189
0	132545	679.435920905342	0.056804988539
0	132590	679.500931	0
0	132709	679.666338564311	0.061254342093
0	132756	680.119172	0
0	132835	680.211234731788	0.10615050957
0	132917	680.737413	0
0	133030	680.844348246483	0.056110693643
0	133109	680.91332611752	0.025970356605
0	133148	681.355654	0
0	133230	681.4315888027	0.044233041785
0	133312	681.973895	0
0	133425	682.085648341354	0.03662690413
0	133504	682.217497427751	0.075816581664
0	133543	682.592136	0
0	133625	682.670865836348	0.029184990261
0	133717	683.210377	0
0	133835	683.311467928042	0.047760342844
0	133924	683.406610933126	0.071397093914
0	133968	683.828618	0
0	134050	683.889681460205	0.054467620993
0	134185	684.437639463485	0.022792770176
0	134229	684.446859	0
0	134349	684.610429425191	0.059883454409
0	134396	685.0651	0
0	134475	685.150467380383	0.099921409601
0	134557	685.683341	0
0	134670	685.804611557553	0.078052874186
0	134749	685.942719516381	0.085677226911
0	134788	686.301582	0
0	134870	686.398503412989	0.041461123519
0	134952	686.919823	0
0	135065	687.07844371493	0.060153995297
0	135144	687.15378737967	0.044166640315
0	135183	687.538064	0
0	135265	687.694908043122	0.085287303767
0	135433	688.156305	0
0	135591	688.414787539619	0.028494322217
0	135759	688.649664659583	0.034194050016
0	135845	688.774546	0
0	135927	689.144761819448	0.029291209881
0	136095	689.392787	0
0	136253	689.832901833021	0.071137756119
0	136422	690.011028	0
0	136501	690.101861252931	0.116709933109
0	136588	690.629269	0
0	136663	691.24751	0
0	136743	691.865751	0
0	136818	692.483992	0
0	136898	693.102233	0
0	136973	693.720474	0
0	137053	694.338715	0
0	137128	694.956956	0
0	137208	695.575197	0
0	137283	696.193438	0
0	137363	696.811679	0
0	137438	697.42992	0
0	137518	698.048161	0
0	137593	698.666402	0
0	137673	699.284643	0
0	137748	699.902884	0
0	137831	700.521125	0
0	137905	700.577230639188	0.092079319366
0	138041	701.139366	0
0	138120	701.191773558153	0.074935654893
0	138209	701.294341626649	0.046022473412
0	138256	701.757607	0
0	138330	701.861828751335	0.113509598098
0	138422	702.375848	0
0	138545	702.510311909455	0.070220918729
0	138634	702.567623912089	0.027067917624
0	138678	702.994089	0
0	138755	703.118169650821	0.077613656356
0	138835	703.61233	0
0	138913	703.6370587751	0.031095757286
0	139022	703.713302346104	0.025407849605
0	139101	703.773047581212	0.027066858988
0	139140	704.230571	0
0	139217	704.300927959994	0.05494723777
0	139338	704.848812	0
0	139417	704.897483003256	0.053194833588
0	139496	704.97218854372	0.04612559957
0	139538	705.467053	0
0	139612	705.530405011483	0.104342067333
0	139704	706.085294	0
0	139827	706.252436058088	0.085212843084
0	139916	706.380397523855	0.049929001057
0	139960	706.703535	0
0	140037	706.915444370872	0.084975848074
0	140126	707.321776	0
0	140252	707.557209252897	0.050788487785
0	140341	707.671239740854	0.023930921926
0	140385	707.940017	0
0	140462	708.216706153737	0.069397334809
0	140541	708.558258	0
0	140662	708.813228713603	0.06905641721
0	140741	708.887611806942	0.024375496304
0	140780	709.176499	0
0	140857	709.385501148187	0.022264837549
0	140936	709.79474	0
0	141057	709.966217089177	0.054521953459
0	141136	710.07776634331	0.044794382854
0	141175	710.412981	0
0	141252	710.583227456853	0.050255496397
0	141420	711.031222	0
0	141583	711.311552402086	0.082451945648
0	141751	711.588938107472	0.047371762037
0	141794	711.649463	0
0	141871	712.083980890258	0.042414544823
0	142039	712.267704	0
0	142121	712.885945	0
0	142196	713.504186	0
0	142276	714.122427	0
0	142351	714.740668	0
0	142431	715.358909	0
0	142506	715.97715	0
0	142586	716.595391	0
0	142661	717.213632	0
0	142741	717.831873	0
0	142816	718.450114	0
0	142896	719.068355	0
0	142971	719.686596	0
0	143051	720.304837	0
0	143126	720.923078	0
0	143289	721.541319	0
0	143363	721.597079838122	0.066501672719
0	143530	721.762675354635	0.021271281631
0	143698	721.941202783786	0.025217502158
0	143784	722.15956	0
0	143865	722.777801	0
0	143940	723.396042	0
0	144020	724.014283	0
0	144095	724.632524	0
0	144175	725.250765	0
0	144250	725.869006	0
0	144330	726.487247	0
0	144405	727.105488	0
0	144485	727.723729	0
0	144556	728.281114573508	0.008484889028
0	144627	728.34197	0
0	144707	728.960211	0
0	144782	729.578452	0
0	144862	730.196693	0
0	144937	730.814934	0
0	145017	731.433175	0
0	145092	732.051416	0
0	145174	732.471879295562	0.055894013934
0	145263	732.669657	0
0	145384	733.078304823765	0.018788832173
0	145473	733.185969117712	0.058562236819
0	145517	733.287898	0
0	145599	733.69683263905	0.069425758157
0	145688	733.906139	0
0	145809	734.356262259237	0.080529583576
0	145898	734.478211069193	0.043604541469
0	145942	734.52438	0
0	146024	734.978855556023	0.044249028299
0	146103	735.142621	0
0	146219	735.568911885474	0.067597740767
0	146298	735.732541114181	0.075679315639
0	146337	735.760862	0
0	146419	736.217356679979	0.060494881437
0	146498	736.379103	0
0	146614	736.796512241673	0.038495253417
0	146693	736.877847959187	0.056885234017
0	146732	736.997344	0
0	146814	737.36186570973	0.04090298456
0	146903	737.615585	0
0	147024	738.020604523502	0.089218317254
0	147113	738.118905879244	0.067282945962
0	147157	738.233826	0
0	147239	738.637159210588	0.085536277306
0	147328	738.852067	0
0	147449	739.272172394558	0.089099835086
0	147538	739.349832535264	0.047465114591
0	147582	739.470308	0
0	147664	739.828039348402	0.025671927729
0	147743	740.088549	0
0	147859	740.408019892494	0.037563643978
0	147938	740.511871764393	0.078899167988
0	147977	740.70679	0
0	148059	740.960969529233	0.027996932828
0	148138	741.325031	0
0	148254	741.586971143271	0.06887746767
0	148333	741.694104654665	0.036785427518
0	148372	741.943272	0
0	148454	742.212197676866	0.054878449719
0	148622	742.561513	0
0	148780	742.981814253467	0.055638982129
0	148949	743.179754	0
0	149028	743.253562801298	0.095225719156
0	149116	743.739422517392	0.08108543525
0	149159	743.797995	0
0	149404	744.416236	0
0	149522	744.599480730369	0.085642820616
0	149690	744.763203610247	0.066859831204
0	149776	745.034477	0
0	149852	745.652718	0
0	149932	746.270959	0
0	150007	746.8892	0
0	150083	747.290092956104	0.010226688547
0	150235	747.507441	0
0	150310	748.125682	0
0	150390	748.743923	0
0	150461	749.053453692052	0.006549690351
0	150538	749.348376176432	0.00854840903
0	150576	749.362164	0
0	150689	749.980405	0
0	150760	750.531843721263	0.00739931917
0	150841	750.598646	0
0	150921	751.216887	0
0	150996	751.835128	0
0	151076	752.453369	0
0	151147	752.947496746706	0.00820039556
0	151218	753.07161	0
0	151298	753.689851	0
0	151373	754.308092	0
0	151453	754.926333	0
0	151530	755.24177354755	0.045429768507
0	151619	755.544574	0
0	151745	755.814069113774	0.019355805614
0	151834	755.881447927838	0.019253287797
0	151878	756.162815	0
0	151955	756.391465000229	0.029270360188
0	152044	756.781056	0
0	152170	757.033377210788	0.065441618004
0	152259	757.19510947542	0.073952844632
0	152303	757.399297	0
0	152380	757.641480765557	0.020324134769
0	152459	758.017538	0
0	152580	758.230386053861	0.0523571576
0	152659	758.390581889499	0.084449101121
0	152698	758.635779	0
0	152775	758.889455587252	0.083322798874
0	152854	759.25402	0
0	152975	759.461247128849	0.020002600324
0	153054	759.575838895634	0.055709015207
0	153093	759.872261	0
0	153170	760.096991314627	0.0768614342
0	153259	760.490502	0
0	153385	760.662814394916	0.025197591889
0	153474	760.741066940803	0.027019213655
0	153518	761.108743	0
0	153595	761.30075173542	0.086704008272
0	153684	761.726984	0
0	153810	761.875528791961	0.043226491277
0	153899	761.951345634787	0.037959765244
0	153943	762.345225	0
0	154020	762.465789466123	0.05240359658
0	154099	762.963466	0
0	154220	763.114231137872	0.077977917314
0	154299	763.223809270655	0.073117574797
0	154338	763.581707	0
0	154415	763.690257800387	0.039566104529
0	154497	764.199948	0
0	154615	764.349011680388	0.064920827546
0	154694	764.42674893848	0.047896301913
0	154733	764.818189	0
0	154810	764.909593496183	0.030740859616
0	154978	765.43643	0
0	155141	765.588820783774	0.063407466223
0	155309	765.801360151575	0.043328440356
0	155395	766.054671	0
0	155472	766.285592334529	0.02756062331
0	155640	766.672912	0
0	155803	767.023000635	0.022974739161
0	155972	767.291153	0
0	156046	767.355728219486	0.127529810156
0	156133	767.909394	0
0	156213	768.527635	0
0	156288	769.145876	0
0	156368	769.764117	0
0	156443	770.382358	0
0	156523	771.000599	0
0	156598	771.61884	0
0	156678	772.237081	0
0	156753	772.855322	0
0	156833	773.473563	0
0	156908	774.091804	0
0	156988	774.710045	0
0	157063	775.328286	0
0	157143	775.946527	0
0	157218	776.564768	0
0	157298	777.183009	0
0	157369	777.615228731419	0.009265713607
0	157443	777.80125	0
0	157522	777.839565365372	0.111366956042
0	157614	778.419491	0
0	157732	778.595284570214	0.075457328415
0	157821	778.707797873825	0.035684275045
0	157865	779.037732	0
0	157947	779.218552958469	0.046439359689
0	158036	779.655973	0
0	158157	779.817225547666	0.069298523486
0	158246	779.934789483263	0.048271185994
0	158290	780.274214	0
0	158372	780.424861774382	0.038343477113
0	158451	780.892455	0
0	158567	781.006810609811	0.021494581418
0	158646	781.176977801508	0.081748730571
0	158685	781.510696	0
0	158767	781.683371164727	0.08814209379
0	158846	782.128937	0
0	158962	782.353259405183	0.079348853314
0	159041	782.430021736631	0.044818773482
0	159080	782.747178	0
0	159162	782.928930870225	0.043727907076
0	159251	783.365419	0
0	159372	783.556472117854	0.069571510725
0	159461	783.737818837777	0.089551738002
0	159505	783.98366	0
0	159587	784.237331040815	0.08906394104
0	159676	784.601901	0
0	159797	784.830831924882	0.06418872611
0	159886	784.991814975825	0.0726388464
0	159930	785.220142	0
0	160012	785.476075077675	0.05689894825
0	160091	785.838383	0
0	160207	786.070258058259	0.024581154132
0	160286	786.177906081513	0.054756329067
0	160325	786.456624	0
0	160407	786.64904841205	0.025898659604
0	160486	787.074865	0
0	160602	787.280186756641	0.048587441247
0	160681	787.390171789808	0.082231536281
0	160720	787.693106	0
0	160802	787.894520493295	0.086580239768
0	160970	788.311347	0
0	161128	788.575140293265	0.078280711393
0	161296	788.798204728913	0.037097305634
0	161382	788.929588	0
0	161464	789.30018872993	0.039081306651
0	161632	789.547829	0
0	161790	790.007824010947	0.064753388383
0	161959	790.16607	0
0	162038	790.238489306779	0.113957813109
0	162125	790.784311	0
0	162200	791.402552	0
0	162280	792.020793	0
0	162355	792.639034	0
0	162435	793.257275	0
0	162510	793.875516	0
0	162590	794.493757	0
0	162665	795.111998	0
0	162745	795.730239	0
0	162820	796.34848	0
0	162900	796.966721	0
0	162975	797.584962	0
0	163055	798.203203	0
0	163130	798.821444	0
0	163210	799.439685	0
1	115	6.243211071968	2
1	147	6.861452071968	2
1	659	7.480461038681	2
1	960	8.098702038681	2
1	1243	8.716943038681	2
1	1363	9.334416071968	2
1	1521	9.953425038681	2
1	1647	10.571666038681	2
1	1690	11.189139071968	2
1	1738	11.808148038681	2
1	1781	12.425621071968	2
1	1896	13.044630038681	2
1	1943	13.662871038681	2
1	1986	14.280344071968	2
1	2034	14.899353038681	2
1	2079	15.516826071968	2
1	2127	16.135835038681	2
1	2176	16.754076038681	2
1	2219	17.371549071968	2
1	2267	17.990558038681	2
1	2312	18.608031071968	2
1	2360	19.227040038681	2
1	2407	19.845281038681	2
1	2450	20.462754071968	2
1	2498	21.081763038681	2
1	2543	21.699236071968	2
1	2591	22.318245038681	2
1	2640	22.936486038681	2
1	2683	23.553959071968	2
1	2731	24.172968038681	2
1	2777	24.790441071968	2
1	2863	25.409450038681	2
1	2910	26.027691038681	2
1	2955	26.645164071968	2
1	3003	27.264173038681	2
1	3046	27.881646071968	2
1	3094	28.500655038681	2
1	3141	29.118896038681	2
1	3184	29.736369071968	2
1	3232	30.355378038681	2
1	3277	30.972851071968	2
1	3325	31.591860038681	2
1	3374	32.210101038681	2
1	3417	32.827574071968	2
1	3465	33.446583038681	2
1	3508	34.064056071968	2
1	3556	34.683065038681	2
1	3603	35.301306038681	2
1	3648	35.918779071968	2
1	3696	36.537788038681	2
1	3739	37.155261071968	2
1	3787	37.774270038681	2
1	3834	38.392511038681	2
1	3877	39.009984071968	2
1	3926	39.628993038681	2
1	4009	40.246466071968	2
1	4057	40.865475038681	2
1	4104	41.483716038681	2
1	4147	42.101189071968	2
1	4195	42.720198038681	2
1	4238	43.337671071968	2
1	4286	43.956680038681	2
1	4335	44.574921038681	2
1	4378	45.192394071968	2
1	4426	45.811403038681	2
1	4471	46.428876071968	2
1	4519	47.047885038681	2
1	4566	47.666126038681	2
1	4611	48.283599071968	2
1	4659	48.902608038681	2
1	4702	49.520081071968	2
1	4750	50.139090038681	2
1	4797	50.757331038681	2
1	4842	51.374804071968	2
1	4890	51.993813038681	2
1	4933	52.611286071968	2
1	4981	53.230295038681	2
1	5030	53.848536038681	2
1	5076	54.466009071968	2
1	5162	55.085018038681	2
1	5205	55.702491071968	2
1	5253	56.321500038681	2
1	5300	56.939741038681	2
1	5343	57.557214071968	2
1	5391	58.176223038681	2
1	5434	58.793696071968	2
1	5482	59.412705038681	2
1	5529	60.030946038681	2
1	5572	60.648419071968	2
1	5620	61.267428038681	2
1	5663	61.884901071968	2
1	5711	62.503910038681	2
1	5758	63.122151038681	2
1	5803	63.739624071968	2
1	5851	64.358633038681	2
1	5894	64.976106071968	2
1	5942	65.595115038681	2
1	5989	66.213356038681	2
1	6032	66.830829071968	2
1	6080	67.449838038681	2
1	6123	68.067311071968	2
1	6171	68.686320038681	2
1	6218	69.304561038681	2
1	6262	69.922034071968	2
1	6348	70.541043038681	2
1	6391	71.158516071968	2
1	6439	71.777525038681	2
1	6486	72.395766038681	2
1	6531	73.013239071968	2
1	6579	73.632248038681	2
1	6622	74.249721071968	2
1	6670	74.868730038681	2
1	6717	75.486971038681	2
1	6762	76.104444071968	2
1	6810	76.723453038681	2
1	6853	77.340926071968	2
1	6901	77.959935038681	2
1	6950	78.578176038681	2
1	6995	79.195649071968	2
1	7043	79.814658038681	2
1	7086	80.432131071968	2
1	7134	81.051140038681	2
1	7183	81.669381038681	2
1	7228	82.286854071968	2
1	7276	82.905863038681	2
1	7463	83.523336071968	2
1	7511	84.142345038681	2
1	7636	84.760586038681	2
1	7679	85.378059071968	2
1	7765	85.997068038681	2
1	7810	86.614541071968	2
1	7925	87.233550038681	2
1	7972	87.851791038681	2
1	8015	88.469264071968	2
1	8063	89.088273038681	2
1	8108	89.705746071968	2
1	8156	90.324755038681	2
1	8205	90.942996038681	2
1	8250	91.560469071968	2
1	8298	92.179478038681	2
1	8343	92.796951071968	2
1	8391	93.415960038681	2
1	8440	94.034201038681	2
1	8483	94.651674071968	2
1	8531	95.270683038681	2
1	8574	95.888156071968	2
1	8622	96.507165038681	2
1	8671	97.125406038681	2
1	8714	97.742879071968	2
1	8762	98.361888038681	2
1	8807	98.979361071968	2
1	8856	99.598370038681	2
1	8903	100.216611038681	2
1	8986	100.834084071968	2
1	9034	101.453093038681	2
1	9079	102.070566071968	2
1	9127	102.689575038681	2
1	9176	103.307816038681	2
1	9219	103.925289071968	2
1	9267	104.544298038681	2
1	9312	105.161771071968	2
1	9360	105.780780038681	2
1	9407	106.399021038681	2
1	9450	107.016494071968	2
1	9498	107.635503038681	2
1	9543	108.252976071968	2
1	9591	108.871985038681	2
1	9640	109.490226038681	2
1	9685	110.107699071968	2
1	9733	110.726708038681	2
1	9776	111.344181071968	2
1	9824	111.963190038681	2
1	9871	112.581431038681	2
1	9916	113.198904071968	2
1	9964	113.817913038681	2
1	10009	114.435386071968	2
1	10095	115.054395038681	2
1	10142	115.672636038681	2
1	10185	116.290109071968	2
1	10233	116.909118038681	2
1	10276	117.526591071968	2
1	10324	118.145600038681	2
1	10373	118.763841038681	2
1	10418	119.381314071968	2
1	10466	120.000323038681	2
1	10509	120.617796071968	2
1	10557	121.236805038681	2
1	10604	121.855046038681	2
1	10649	122.472519071968	2
1	10697	123.091528038681	2
1	10740	123.709001071968	2
1	10788	124.328010038681	2
1	10837	124.946251038681	2
1	10880	125.563724071968	2
1	10928	126.182733038681	2
1	10973	126.800206071968	2
1	11021	127.419215038681	2
1	11068	128.037456038681	2
1	11111	128.654929071968	2
1	11159	129.273938038681	2
1	11203	129.891411071968	2
1	11289	130.510420038681	2
1	11336	131.128661038681	2
1	11379	131.746134071968	2
1	11427	132.365143038681	2
1	11470	132.982616071968	2
1	11518	133.601625038681	2
1	11565	134.219866038681	2
1	11608	134.837339071968	2
1	11656	135.456348038681	2
1	11699	136.073821071968	2
1	11747	136.692830038681	2
1	11794	137.311071038681	2
1	11837	137.928544071968	2
1	11885	138.547553038681	2
1	11928	139.165026071968	2
1	11976	139.784035038681	2
1	12023	140.402276038681	2
1	12068	141.019749071968	2
1	12116	141.638758038681	2
1	12159	142.256231071968	2
1	12207	142.875240038681	2
1	12254	143.493481038681	2
1	12297	144.110954071968	2
1	12346	144.729963038681	2
1	12389	145.347436071968	2
1	12475	145.966445038681	2
1	12522	146.584686038681	2
1	12567	147.202159071968	2
1	12615	147.821168038681	2
1	12658	148.438641071968	2
1	12706	149.057650038681	2
1	12755	149.675891038681	2
1	12800	150.293364071968	2
1	12848	150.912373038681	2
1	12893	151.529846071968	2
1	12941	152.148855038681	2
1	12990	152.767096038681	2
1	13033	153.384569071968	2
1	13081	154.003578038681	2
1	13126	154.621051071968	2
1	13174	155.240060038681	2
1	13223	155.858301038681	2
1	13268	156.475774071968	2
1	13393	157.094783038681	2
1	13503	157.712256071968	2
1	13551	158.331265038681	2
1	13675	158.949506038681	2
1	13719	159.566979071968	2
1	13805	160.185988038681	2
1	13850	160.803461071968	2
1	13965	161.422470038681	2
1	14014	162.040711038681	2
1	14057	162.658184071968	2
1	14105	163.277193038681	2
1	14148	163.894666071968	2
1	14196	164.513675038681	2
1	14245	165.131916038681	2
1	14290	165.749389071968	2
1	14338	166.368398038681	2
1	14381	166.985871071968	2
1	14429	167.604880038681	2
1	14478	168.223121038681	2
1	14521	168.840594071968	2
1	14569	169.459603038681	2
1	14612	170.077076071968	2
1	14660	170.696085038681	2
1	14707	171.314326038681	2
1	14750	171.931799071968	2
1	14798	172.550808038681	2
1	14843	173.168281071968	2
1	14891	173.787290038681	2
1	14938	174.405531038681	2
1	14984	175.023004071968	2
1	15070	175.642013038681	2
1	15113	176.259486071968	2
1	15161	176.878495038681	2
1	15208	177.496736038681	2
1	15253	178.114209071968	2
1	15301	178.733218038681	2
1	15346	179.350691071968	2
1	15394	179.969700038681	2
1	15441	180.587941038681	2
1	15484	181.205414071968	2
1	15532	181.824423038681	2
1	15575	182.441896071968	2
1	15623	183.060905038681	2
1	15670	183.679146038681	2
1	15715	184.296619071968	2
1	15763	184.915628038681	2
1	15806	185.533101071968	2
1	15854	186.152110038681	2
1	15901	186.770351038681	2
1	15944	187.387824071968	2
1	15992	188.006833038681	2
1	16037	188.624306071968	2
1	16085	189.243315038681	2
1	16133	189.861556038681	2
1	16176	190.479029071968	2
1	16262	191.098038038681	2
1	16305	191.715511071968	2
1	16353	192.334520038681	2
1	16400	192.952761038681	2
1	16445	193.570234071968	2
1	16493	194.189243038681	2
1	16536	194.806716071968	2
1	16584	195.425725038681	2
1	16633	196.043966038681	2
1	16676	196.661439071968	2
1	16724	197.280448038681	2
1	16769	197.897921071968	2
1	16817	198.516930038681	2
1	16864	199.135171038681	2
1	16909	199.752644071968	2
1	16957	200.371653038681	2
1	17000	200.989126071968	2
1	17048	201.608135038681	2
1	17097	202.226376038681	2
1	17142	202.843849071968	2
1	17190	203.462858038681	2
1	17233	204.080331071968	2
1	17282	204.699340038681	2
1	17329	205.317581038681	2
1	17412	205.935054071968	2
1	17460	206.554063038681	2
[...]
50	82919	494.654369381968	1
50	83337	495.890083381968	2
50	83344	495.890851381968	1
50	83762	497.126565381968	2
50	83769	497.127333381968	1
50	84157	498.363047381968	2
50	84164	498.363815381968	1
50	84552	499.599529381968	2
50	84559	499.600297381968	1
50	84977	500.836011381968	2
50	84984	500.836779381968	1
50	85402	502.072493381968	2
50	85409	502.073261381968	1
50	85797	503.308975381968	2
50	85804	503.309743381968	1
50	86192	504.545457381968	2
50	86199	504.546225381968	1
50	86286	504.769248814813	2
50	86292	504.771168814813	1
50	86612	505.51138631194	2
50	86618	505.51193031194	1
50	86780	505.747094784493	2
50	86786	505.747638784493	1
50	86854	505.781939381968	2
50	86861	505.782707381968	1
50	86948	506.185718724311	2
50	86954	506.186710724311	1
50	87341	506.898259025975	2
50	87347	506.898803025975	1
50	87458	507.018421381968	2
50	87465	507.019189381968	1
50	87589	507.169842781156	2
50	87595	507.170386781156	1
50	87739	508.254903381968	2
50	87746	508.255671381968	1
50	87894	509.491385381968	2
50	87901	509.492153381968	1
50	88049	510.727867381968	2
50	88056	510.728635381968	1
50	88204	511.964349381968	2
50	88211	511.965117381968	1
50	88359	513.200831381968	2
50	88366	513.201599381968	1
50	88514	514.437313381968	2
50	88521	514.438081381968	1
50	88669	515.673795381968	2
50	88676	515.674563381968	1
50	88824	516.910277381968	2
50	88831	516.911045381968	1
50	89070	518.146759381968	2
50	89077	518.147527381968	1
50	89542	519.383241381968	2
50	89549	519.384009381968	1
50	89913	520.619723381968	2
50	89920	520.620491381968	1
50	90308	521.856205381968	2
50	90315	521.856973381968	1
50	90710	523.092687381968	2
50	90717	523.093455381968	1
50	91135	524.329169381968	2
50	91142	524.329937381968	1
50	91554	525.299280027246	2
50	91560	525.299760027246	1
50	91698	525.565651381968	2
50	91705	525.566419381968	1
50	92093	526.802133381968	2
50	92100	526.802901381968	1
50	92565	527.555568232378	2
50	92571	527.557488232378	1
50	92721	528.038615381968	2
50	92728	528.039383381968	1
50	92896	528.258386954423	2
50	92902	528.258930954423	1
50	93064	528.47001538804	2
50	93070	528.47055938804	1
50	93304	529.025164022857	2
50	93310	529.026156022857	1
50	93460	529.275097381968	2
50	93467	529.275865381968	1
50	93635	529.726213297901	2
50	93641	529.726757297901	1
50	93878	529.961418975576	2
50	93884	529.961962975576	1
50	93953	530.511579381968	2
50	93960	530.512347381968	1
50	94175	531.748061381968	2
50	94182	531.748829381968	1
50	94330	532.984543381968	2
50	94337	532.985311381968	1
50	94485	534.221025381968	2
50	94492	534.221793381968	1
50	94640	535.457507381968	2
50	94647	535.458275381968	1
50	94795	536.693989381968	2
50	94802	536.694757381968	1
50	94950	537.930471381968	2
50	94957	537.931239381968	1
50	95105	539.166953381968	2
50	95112	539.167721381968	1
50	95263	540.403435381968	2
50	95270	540.404203381968	1
50	95685	541.639917381968	2
50	95692	541.640685381968	1
50	96110	542.876399381968	2
50	96117	542.877167381968	1
50	96505	544.112881381968	2
50	96512	544.113649381968	1
50	96900	545.349363381968	2
50	96907	545.350131381968	1
50	97325	546.585845381968	2
50	97332	546.586613381968	1
50	97750	547.822327381968	2
50	97757	547.823095381968	1
50	98145	549.058809381968	2
50	98152	549.059577381968	1
50	98540	550.295291381968	2
50	98547	550.296059381968	1
50	98634	550.482012400753	2
50	98640	550.483932400753	1
50	98960	551.209859702136	2
50	98966	551.210403702136	1
50	99128	551.400576915806	2
50	99134	551.401120915806	1
50	99202	551.531773381968	2
50	99209	551.532541381968	1
50	99296	551.899168408082	2
50	99302	551.900160408082	1
50	99622	552.666778611889	2
50	99628	552.667322611889	1
50	99739	552.768255381968	2
50	99746	552.769023381968	1
50	99870	552.9946363803	2
50	99876	552.9951803803	1
50	100020	554.004737381968	2
50	100027	554.005505381968	1
50	100175	555.241219381968	2
50	100182	555.241987381968	1
50	100397	556.477701381968	2
50	100404	556.478469381968	1
50	100552	557.714183381968	2
50	100559	557.714951381968	1
50	100707	558.950665381968	2
50	100714	558.951433381968	1
50	100862	560.187147381968	2
50	100869	560.187915381968	1
50	101017	561.423629381968	2
50	101024	561.424397381968	1
50	101172	562.660111381968	2
50	101179	562.660879381968	1
50	101418	563.896593381968	2
50	101425	563.897361381968	1
50	101843	565.133075381968	2
50	101850	565.133843381968	1
50	102258	566.369557381968	2
50	102265	566.370325381968	1
50	102653	567.606039381968	2
50	102660	567.606807381968	1
50	103058	568.842521381968	2
50	103065	568.843289381968	1
50	103486	570.079003381968	2
50	103493	570.079771381968	1
50	103898	571.315485381968	2
50	103905	571.316253381968	1
50	104296	572.551967381968	2
50	104303	572.552735381968	1
50	104621	573.299916344857	2
50	104627	573.301836344857	1
50	104777	573.788449381968	2
50	104784	573.789217381968	1
50	104952	574.026016352894	2
50	104958	574.026560352894	1
50	105120	574.200975710643	2
50	105126	574.201519710643	1
50	105283	574.788145354865	2
50	105289	574.789137354865	1
50	105439	575.024931381968	2
50	105446	575.025699381968	1
50	105614	575.521326776252	2
50	105620	575.521870776252	1
50	105857	575.706266862508	2
50	105863	575.706810862508	1
50	105932	576.261413381968	2
50	105939	576.262181381968	1
50	106087	577.497895381968	2
50	106094	577.498663381968	1
50	106242	578.734377381968	2
50	106249	578.735145381968	1
50	106397	579.970859381968	2
50	106404	579.971627381968	1
50	106619	581.207341381968	2
50	106626	581.208109381968	1
50	106774	582.443823381968	2
50	106781	582.444591381968	1
50	106929	583.680305381968	2
50	106936	583.681073381968	1
50	107084	584.916787381968	2
50	107091	584.917555381968	1
50	107242	586.153269381968	2
50	107249	586.154037381968	1
50	107667	587.389751381968	2
50	107674	587.390519381968	1
50	108089	588.626233381968	2
50	108096	588.627001381968	1
50	108484	589.862715381968	2
50	108491	589.863483381968	1
50	108879	591.099197381968	2
50	108886	591.099965381968	1
50	109304	592.335679381968	2
50	109311	592.336447381968	1
50	109729	593.572161381968	2
50	109736	593.572929381968	1
50	110124	594.808643381968	2
50	110131	594.809411381968	1
50	110519	596.045125381968	2
50	110526	596.045893381968	1
50	110613	596.20547495667	2
50	110619	596.20739495667	1
50	110939	596.877418935966	2
50	110945	596.877962935966	1
50	111107	597.057978553619	2
50	111113	597.058522553619	1
50	111181	597.281607381968	2
50	111188	597.282375381968	1
50	111275	597.604228534615	2
50	111281	597.605220534615	1
50	111601	598.366585640622	2
50	111607	598.367129640622	1
50	111769	598.502617733352	2
50	111775	598.503161733352	1
50	111843	598.518089381968	2
50	111850	598.518857381968	1
50	112002	599.296731380163	2
50	112009	599.297211380163	1
50	112147	599.754571381968	2
50	112154	599.755339381968	1
50	112302	600.991053381968	2
50	112309	600.991821381968	1
50	112601	602.227535381968	2
50	112608	602.228303381968	1
50	112833	603.464017381968	2
50	112840	603.464785381968	1
50	112988	604.700499381968	2
50	112995	604.701267381968	1
50	113210	605.936981381968	2
50	113217	605.937749381968	1
50	113365	607.173463381968	2
50	113372	607.174231381968	1
50	113520	608.409945381968	2
50	113527	608.410713381968	1
50	113769	609.646427381968	2
50	113776	609.647195381968	1
50	114194	610.882909381968	2
50	114201	610.883677381968	1
50	114609	612.119391381968	2
50	114616	612.120159381968	1
50	115001	613.355873381968	2
50	115008	613.356641381968	1
50	115409	614.592355381968	2
50	115416	614.593123381968	1
50	115834	615.828837381968	2
50	115841	615.829605381968	1
50	116249	617.065319381968	2
50	116256	617.066087381968	1
50	116641	618.301801381968	2
50	116648	618.302569381968	1
50	116969	619.218899814589	2
50	116975	619.220819814589	1
50	117125	619.538283381968	2
50	117132	619.539051381968	1
50	117300	619.945253752553	2
50	117306	619.945797752553	1
50	117468	620.14671439863	2
50	117474	620.14725839863	1
50	117631	620.651733148207	2
50	117637	620.652725148207	1
50	117787	620.774765381968	2
50	117794	620.775533381968	1
50	117962	621.333974509052	2
50	117968	621.334518509052	1
50	118205	621.653274847888	2
50	118211	621.653818847888	1
50	118279	622.011247381968	2
50	118286	622.012015381968	1
50	118435	623.247729381968	2
50	118442	623.248497381968	1
50	118590	624.484211381968	2
50	118597	624.484979381968	1
50	118745	625.720693381968	2
50	118752	625.721461381968	1
50	118900	626.957175381968	2
50	118907	626.957943381968	1
50	119055	628.193657381968	2
50	119062	628.194425381968	1
50	119210	629.430139381968	2
50	119217	629.430907381968	1
50	119432	630.666621381968	2
50	119439	630.667389381968	1
50	119587	631.903103381968	2
50	119594	631.903871381968	1
50	120012	633.139585381968	2
50	120019	633.140353381968	1
50	120437	634.376067381968	2
50	120444	634.376835381968	1
50	120832	635.612549381968	2
50	120839	635.613317381968	1
50	121227	636.849031381968	2
50	121234	636.849799381968	1
50	121652	638.085513381968	2
50	121659	638.086281381968	1
50	122077	639.321995381968	2
50	122084	639.322763381968	1
50	122472	640.558477381968	2
50	122479	640.559245381968	1
50	122912	641.794959381968	2
50	122919	641.795727381968	1
50	122961	641.873471393679	2
50	122967	641.875391393679	1
50	123287	642.66434703115	2
50	123293	642.66489103115	1
50	123455	642.907191816703	2
50	123461	642.907735816703	1
50	123529	643.031441381968	2
50	123536	643.032209381968	1
50	123623	643.370994921515	2
50	123629	643.371986921515	1
50	123949	644.116544189291	2
50	123955	644.117088189291	1
50	124148	644.267923381968	2
50	124155	644.268691381968	1
50	124197	644.361455630448	2
50	124203	644.361999630448	1
50	124347	645.504405381968	2
50	124354	645.505173381968	1
50	124502	646.740887381968	2
50	124509	646.741655381968	1
50	124657	647.977369381968	2
50	124664	647.978137381968	1
50	124812	649.213851381968	2
50	124819	649.214619381968	1
50	124967	650.450333381968	2
50	124974	650.451101381968	1
50	125122	651.686815381968	2
50	125129	651.687583381968	1
50	125277	652.923297381968	2
50	125284	652.924065381968	1
50	125432	654.159779381968	2
50	125439	654.160547381968	1
50	125792	655.396261381968	2
50	125799	655.397029381968	1
50	126173	656.632743381968	2
50	126180	656.633511381968	1
50	126585	657.869225381968	2
50	126592	657.869993381968	1
50	126983	659.105707381968	2
50	126990	659.106475381968	1
50	127432	660.342189381968	2
50	127439	660.342957381968	1
50	127813	661.578671381968	2
50	127820	661.579439381968	1
50	128228	662.815153381968	2
50	128235	662.815921381968	1
50	128623	664.051635381968	2
50	128630	664.052403381968	1
50	128948	664.790303070881	2
50	128954	664.792223070881	1
50	129104	665.288117381968	2
50	129111	665.288885381968	1
50	129279	665.459340587537	2
50	129285	665.459884587537	1
50	129447	665.693830493782	2
50	129453	665.694374493782	1
50	129610	666.13099952707	2
50	129616	666.13199152707	1
50	129766	666.524599381968	2
50	129773	666.525367381968	1
50	129941	666.877461549165	2
50	129947	666.878005549165	1
50	130109	667.075385022529	2
50	130115	667.075929022529	1
50	130259	667.761081381968	2
50	130266	667.761849381968	1
50	130414	668.997563381968	2
50	130421	668.998331381968	1
50	130569	670.234045381968	2
50	130576	670.234813381968	1
50	130724	671.470527381968	2
50	130731	671.471295381968	1
50	130879	672.707009381968	2
50	130886	672.707777381968	1
50	130963	673.301332537013	2
50	130969	673.301812537013	1
50	131182	673.943491381968	2
50	131189	673.944259381968	1
50	131414	675.179973381968	2
50	131421	675.180741381968	1
50	131636	676.416455381968	2
50	131643	676.417223381968	1
50	131959	677.652937381968	2
50	131966	677.653705381968	1
50	132384	678.889419381968	2
50	132391	678.890187381968	1
50	132788	680.125901381968	2
50	132795	680.126669381968	1
50	133180	681.362383381968	2
50	133187	681.363151381968	1
50	133575	682.598865381968	2
50	133582	682.599633381968	1
50	134003	683.835347381968	2
50	134010	683.836115381968	1
50	134428	685.071829381968	2
50	134435	685.072597381968	1
50	134820	686.308311381968	2
50	134827	686.309079381968	1
50	135215	687.544793381968	2
50	135222	687.545561381968	1
50	135309	687.751617479623	2
50	135315	687.753537479623	1
50	135635	688.448173953618	2
50	135641	688.448717953618	1
50	135803	688.735995144827	2
50	135809	688.736539144827	1
50	135877	688.781275381968	2
50	135884	688.782043381968	1
50	135971	689.176580463716	2
50	135977	689.177572463716	1
50	136297	689.884998902633	2
50	136303	689.885542902633	1
50	136454	690.017757381968	2
50	136461	690.018525381968	1
50	136545	690.13217231465	2
50	136551	690.13271631465	1
50	136695	691.254239381968	2
50	136702	691.255007381968	1
50	136850	692.490721381968	2
50	136857	692.491489381968	1
50	137005	693.727203381968	2
50	137012	693.727971381968	1
50	137160	694.963685381968	2
50	137167	694.964453381968	1
50	137315	696.200167381968	2
50	137322	696.200935381968	1
50	137470	697.436649381968	2
50	137477	697.437417381968	1
50	137625	698.673131381968	2
50	137632	698.673899381968	1
50	137780	699.909613381968	2
50	137787	699.910381381968	1
50	138073	701.146095381968	2
50	138080	701.146863381968	1
50	138454	702.382577381968	2
50	138461	702.383345381968	1
50	138867	703.619059381968	2
50	138874	703.619827381968	1
50	139370	704.855541381968	2
50	139377	704.856309381968	1
50	139736	706.092023381968	2
50	139743	706.092791381968	1
50	140158	707.328505381968	2
50	140165	707.329273381968	1
50	140573	708.564987381968	2
50	140580	708.565755381968	1
50	140968	709.801469381968	2
50	140975	709.802237381968	1
50	141296	710.614865303436	2
50	141302	710.616785303436	1
50	141452	711.037951381968	2
50	141459	711.038719381968	1
50	141627	711.38659394212	2
50	141633	711.38713794212	1
50	141915	712.151770985715	2
50	141921	712.152762985715	1
50	142071	712.274433381968	2
50	142078	712.275201381968	1
50	142228	713.510915381968	2
50	142235	713.511683381968	1
50	142383	714.747397381968	2
50	142390	714.748165381968	1
50	142538	715.983879381968	2
50	142545	715.984647381968	1
50	142693	717.220361381968	2
50	142700	717.221129381968	1
50	142848	718.456843381968	2
50	142855	718.457611381968	1
50	143003	719.693325381968	2
50	143010	719.694093381968	1
50	143158	720.929807381968	2
50	143165	720.930575381968	1
50	143407	721.641808480309	2
50	143413	721.642352480309	1
50	143574	721.78999281995	2
50	143580	721.79053681995	1
50	143742	721.965103096875	2
50	143748	721.965647096875	1
50	143816	722.166289381968	2
50	143823	722.167057381968	1
50	143972	723.402771381968	2
50	143979	723.403539381968	1
50	144127	724.639253381968	2
50	144134	724.640021381968	1
50	144282	725.875735381968	2
50	144289	725.876503381968	1
50	144437	727.112217381968	2
50	144444	727.112985381968	1
50	144659	728.348699381968	2
50	144666	728.349467381968	1
50	144814	729.585181381968	2
50	144821	729.585949381968	1
50	144969	730.821663381968	2
50	144976	730.822431381968	1
50	145124	732.058145381968	2
50	145131	732.058913381968	1
50	145549	733.294627381968	2
50	145556	733.295395381968	1
50	145974	734.531109381968	2
50	145981	734.531877381968	1
50	146369	735.767591381968	2
50	146376	735.768359381968	1
50	146764	737.004073381968	2
50	146771	737.004841381968	1
50	147189	738.240555381968	2
50	147196	738.241323381968	1
50	147614	739.477037381968	2
50	147621	739.477805381968	1
50	148009	740.713519381968	2
50	148016	740.714287381968	1
50	148404	741.950001381968	2
50	148411	741.950769381968	1
50	148498	742.272174501935	2
50	148504	742.274094501935	1
50	148824	743.029160798846	2
50	148830	743.029704798846	1
50	148981	743.186483381968	2
50	148988	743.187251381968	1
50	149072	743.341217520055	2
50	149078	743.341761520055	1
50	149235	743.83546474489	2
50	149241	743.83645674489	1
50	149436	744.422965381968	2
50	149443	744.423733381968	1
50	149566	744.631392341955	2
50	149572	744.631936341955	1
50	149734	744.815444200333	2
50	149740	744.815988200333	1
50	149884	745.659447381968	2
50	149891	745.660215381968	1
50	150039	746.895929381968	2
50	150046	746.896697381968	1
50	150123	747.302598008398	2
50	150129	747.303078008398	1
50	150342	748.132411381968	2
50	150349	748.133179381968	1
50	150608	749.368893381968	2
50	150615	749.369661381968	1
50	150873	750.605375381968	2
50	150880	750.606143381968	1
50	151028	751.841857381968	2
50	151035	751.842625381968	1
50	151250	753.078339381968	2
50	151257	753.079107381968	1
50	151405	754.314821381968	2
50	151412	754.315589381968	1
50	151651	755.551303381968	2
50	151658	755.552071381968	1
50	152076	756.787785381968	2
50	152083	756.788553381968	1
50	152491	758.024267381968	2
50	152498	758.025035381968	1
50	152886	759.260749381968	2
50	152893	759.261517381968	1
50	153291	760.497231381968	2
50	153298	760.497999381968	1
50	153716	761.733713381968	2
50	153723	761.734481381968	1
50	154134	762.970195381968	2
50	154141	762.970963381968	1
50	154529	764.206677381968	2
50	154536	764.207445381968	1
50	154854	764.957978621633	2
50	154860	764.959898621633	1
50	155010	765.443159381968	2
50	155017	765.443927381968	1
50	155185	765.655869370591	2
50	155191	765.656413370591	1
50	155353	765.878043956099	2
50	155359	765.878587956099	1
50	155516	766.342128536563	2
50	155522	766.343120536563	1
50	155672	766.679641381968	2
50	155679	766.680409381968	1
50	155847	767.109028520628	2
50	155853	767.109572520628	1
50	156090	767.445914297832	2
50	156096	767.446458297832	1
50	156165	767.916123381968	2
50	156172	767.916891381968	1
50	156320	769.152605381968	2
50	156327	769.153373381968	1
50	156475	770.389087381968	2
50	156482	770.389855381968	1
50	156630	771.625569381968	2
50	156637	771.626337381968	1
50	156785	772.862051381968	2
50	156792	772.862819381968	1
50	156940	774.098533381968	2
50	156947	774.099301381968	1
50	157095	775.335015381968	2
50	157102	775.335783381968	1
50	157250	776.571497381968	2
50	157257	776.572265381968	1
50	157475	777.807979381968	2
50	157482	777.808747381968	1
50	157897	779.044461381968	2
50	157904	779.045229381968	1
50	158322	780.280943381968	2
50	158329	780.281711381968	1
50	158717	781.517425381968	2
50	158724	781.518193381968	1
50	159112	782.753907381968	2
50	159119	782.754675381968	1
50	159537	783.990389381968	2
50	159544	783.991157381968	1
50	159962	785.226871381968	2
50	159969	785.227639381968	1
50	160357	786.463353381968	2
50	160364	786.464121381968	1
50	160752	787.699835381968	2
50	160759	787.700603381968	1
50	160846	787.920868552419	2
50	160852	787.922788552419	1
50	161172	788.630969698802	2
50	161178	788.631513698802	1
50	161340	788.824093831513	2
50	161346	788.824637831513	1
50	161414	788.936317381968	2
50	161421	788.937085381968	1
50	161508	789.337117262262	2
50	161514	789.338109262262	1
50	161834	790.062763517611	2
50	161840	790.063307517611	1
50	161991	790.172799381968	2
50	161998	790.173567381968	1
50	162082	790.310002403004	2
50	162088	790.310546403004	1
50	162232	791.409281381968	2
50	162239	791.410049381968	1
50	162387	792.645763381968	2
50	162394	792.646531381968	1
50	162542	793.882245381968	2
50	162549	793.883013381968	1
50	162697	795.118727381968	2
50	162704	795.119495381968	1
50	162852	796.355209381968	2
50	162859	796.355977381968	1
50	163007	797.591691381968	2
50	163014	797.592459381968	1
50	163162	798.828173381968	2
50	163169	798.828941381968	1
51	74566	459.888638268613	0
51	75308	461.458329197449	1.547460674458
51	80558	482.465907415015	0
51	81220	483.939156669275	1.468554683435
51	86478	505.274528135126	0
51	87207	506.688266001024	1.499101675691
51	92762	528.060847552691	0
51	93501	529.52771129957	1.458659909367
51	98826	550.987291721066	0
51	99488	552.401715684795	1.419720665872
51	104818	573.80519566517	0
51	105480	575.290692631578	1.3850723949511
51	110805	596.710754276983	0
51	111467	598.106775811328	1.368929298287
51	117166	619.724179134902	0
51	117828	621.15428042492	1.4891902592731
51	123078	642.378750713992	0
51	123815	643.873542198228	1.583922591549
51	129133	665.295582391194	0
51	129807	666.633546803783	1.328245624118
51	135501	688.256896799936	0
51	136163	689.679127740429	1.5058498702119
51	141493	711.120144623749	0
51	142112	712.654318262428	1.508594384979
51	148690	742.777453822248	0
51	149352	744.338012021603	1.501017854995
51	155051	765.463257941946	0
51	155713	766.844675813276	1.379179074652
51	161038	788.426147872732	0
51	161700	789.839664538975	1.453167169752
52	141784	711.590166666723	1

