version 3
run General-0-20220317-11:57:43-6325
attr configname General
attr datetime 20220317-11:57:43
attr datetimef 20220317-115743
attr experiment General
attr inifile HybridMeter.ini
attr iterationvars ""
attr iterationvarsd ""
attr iterationvarsf ""
attr measurement ""
attr network HybridMeter_Net
attr processid 6325
attr repetition 0
attr replication #0
attr resultdir results
attr runnumber 0
attr seedset 0
config debug-on-errors true
config image-path ../../../../inet4.3/images
config network HybridMeter_Net
config repeat 1
config **.*.*.BERFilename "\"./BERDATA/RSC_M_4.txt\""
config **.*.*.standaloneRFNetwork false
config **.radio.centerFrequency "905 MHz"
config **.radio.bandwidth "2.8 MHz"
config **.radio.headerLength "(1 *8 + 7 + 1) * 16us"
config **.transmitter.modulation "\"BPSK\""
config **.transmitter.bitrate 250kbps
config **.transmitter.power 2.29mW
config **.receiver.modulation "\"BPSK\""
config **.receiver.sensitivity -94.01dBm
config **.receiver.minInterferencePower -120dBm
config *.RfBaseNode.mobility.typename StationaryMobility
config *.PLC_BN.hasRF true
config *.PLC_BN.hasPRIME true
config *.*.rflan.PHYLayerAbstraction.posicionYdelBN 300
config *.PLC_BN.mac.oneOfEveryXNodesIsHybrid 1
config *.PLC_BN.mac.oneOfEveryXRegularNodesIsRF 0
config *.PLC_BN.mac.oneOfEveryXHybridNodesIsRF 1
config *.RfServiceNode.mobility.typename StationaryMobility
config *.PLC_SN[*].hasRF true
config *.PLC_SN[*].hasPRIME true
config *.PLC_SN[*].mac.oneOfEveryXNodesIsHybrid 2
config *.PLC_SN[*].mac.oneOfEveryXRegularNodesIsRF 2
config *.PLC_SN[*].mac.oneOfEveryXHybridNodesIsRF 2
config sim-time-limit 3000s
config **.endSimTime 50000
config **.uniform_d true
config **.fixedArch false
config **.recordDLMSCOSEMAppMsgRoundtripLatency true
config **.recordDLMSCOSEMAppMsgLatency false
config **.recordDLMSCOSEMAppTTRAllMeters true
config **.record_app_roundtrip true
config **.record_PRO_Num_Switches true
config **.record_REG true
config **.printLog false
config **.PLC_BN.mac.DEFAULT_ALV_TIME 120
config **.BER_SIM -1.0
config **.PLC_SN[*].mac.DEFAULT_COMMUNICATION_MODE 0
config **.PLC_SN[*].mac.RANDOM_REGISTRATION_NUMBER 10
config **.PLC_SN[*].mac.RANDOM_REGISTRATION false
config **.PLC_SN[*].mac.ALV_OFFSET 60
config **.PLC_SN[*].mac.SWITCH_CAPABILITY true
config **.mac.PRN_WAIT_TIME 30
config **.interAppMsgTime 10.0
config **.firstAppMsgAt 300.0
config **.PLC_BN.mac.promotionNode_EUI48 -1
config **.PLC_BN.mac.promotionNode_2ndLevel_EUI48 -1
config **.ctrlIndComMode 0
config **.initialIndComMode 0
config **.usePRM true
config **.interPromotionTime 200
config **.appBlockBehaviour true
config **.AppReqMsgSize_Bytes 70
config **.AppResMsgSize_Bytes 1568
config **.AppGetReqSize_Bytes 71
config **.AppGetReqNextSize_Bytes 14
config **.AppResBlockSize_Bytes 239
config **.AppProcessingTime 5.0
config **.llc.llcReTxTimer 10
config **.PLC_SN[*].mac.allowSwitchIfDBPSK_FEC true
config **.PLC_SN[*].mac.refreshSwitchPower false
config **.PLC_SN[*].mac.numDisconnectionsBeforePRN 5
config **.alvNChances 3
config **.plcBus[*].impulsive false
config **.sequentialPollingInterval 9
config **.useSequentialPolling true
config **.sendALV true
config **.appTimeOut 50
config **.txQueueLimit 10000
config warmup-period 5s
config **.llc.CIMTUSizeBytes 256
config **.llc.CIMTUSizeBits 2048
config **.llc.defaultWindowSize 1
config **.appBehavior 2001
config **.nBranches 2
config **.PLC_SN[*].mac.CAP_CFP false
config **.PLC_SN[*].llc.CAP_CFP false
config **.PLC_BN.mac.policy 1
config **.plcBus[*].nullAttenuation false
config **.nHostsPerBranch 5
config **.attFileAddress "\"topologiasLINTER/att/atenuaciones_5.txt\""
config **.CAP_CFP_NUM_SN -1
config **.busLength 100
config **.busLengthForRadios 100
config **.verticalDistanceBetweenBuses 20
config **.positions "\"25 38 37\""
config **.archFileAddress "\"\""

vector 0 HybridMeter_Net.PLC_BN.mac PLCAccessDelay ETV
vector 1 HybridMeter_Net.PLC_BN.rflan.wlan.radio transmissionState:vector ETV
attr interpolationmode sample-hold
attr source transmissionStateChanged
attr title "Radio transmission state, vector"
vector 2 HybridMeter_Net.PLC_SN[0].rflan.wlan.radio receptionState:vector ETV
attr interpolationmode sample-hold
attr source receptionStateChanged
attr title "Radio reception state, vector"
vector 3 HybridMeter_Net.PLC_SN[5].rflan.wlan.radio receptionState:vector ETV
attr interpolationmode sample-hold
attr source receptionStateChanged
attr title "Radio reception state, vector"
vector 4 HybridMeter_Net.PLC_SN[1].rflan.wlan.radio receptionState:vector ETV
attr interpolationmode sample-hold
attr source receptionStateChanged
attr title "Radio reception state, vector"
vector 5 HybridMeter_Net.PLC_SN[6].rflan.wlan.radio receptionState:vector ETV
attr interpolationmode sample-hold
attr source receptionStateChanged
attr title "Radio reception state, vector"
vector 6 HybridMeter_Net.PLC_SN[2].rflan.wlan.radio receptionState:vector ETV
attr interpolationmode sample-hold
attr source receptionStateChanged
attr title "Radio reception state, vector"
vector 7 HybridMeter_Net.PLC_SN[7].rflan.wlan.radio receptionState:vector ETV
attr interpolationmode sample-hold
attr source receptionStateChanged
attr title "Radio reception state, vector"
vector 8 HybridMeter_Net.PLC_SN[3].rflan.wlan.radio receptionState:vector ETV
attr interpolationmode sample-hold
attr source receptionStateChanged
attr title "Radio reception state, vector"
vector 9 HybridMeter_Net.PLC_SN[8].rflan.wlan.radio receptionState:vector ETV
attr interpolationmode sample-hold
attr source receptionStateChanged
attr title "Radio reception state, vector"
vector 10 HybridMeter_Net.PLC_SN[4].rflan.wlan.radio receptionState:vector ETV
attr interpolationmode sample-hold
attr source receptionStateChanged
attr title "Radio reception state, vector"
vector 11 HybridMeter_Net.PLC_SN[9].rflan.wlan.radio receptionState:vector ETV
attr interpolationmode sample-hold
attr source receptionStateChanged
attr title "Radio reception state, vector"
vector 12 HybridMeter_Net.PLC_SN[0].mac I_received_BCN ETV
vector 13 HybridMeter_Net.PLC_SN[5].mac I_received_BCN ETV
vector 14 HybridMeter_Net.PLC_SN[5].mac I_sent_REG_REQ ETV
vector 15 HybridMeter_Net.PLC_SN[1].mac I_received_BCN ETV
vector 16 HybridMeter_Net.PLC_SN[6].mac I_received_BCN ETV
vector 17 HybridMeter_Net.PLC_SN[1].mac I_sent_REG_REQ ETV
vector 18 HybridMeter_Net.PLC_SN[6].mac I_sent_REG_REQ ETV
vector 19 HybridMeter_Net.PLC_SN[2].mac I_received_BCN ETV
vector 20 HybridMeter_Net.PLC_SN[2].mac I_sent_REG_REQ ETV
vector 21 HybridMeter_Net.PLC_SN[8].mac I_received_BCN ETV
vector 22 HybridMeter_Net.PLC_SN[8].mac I_sent_REG_REQ ETV
vector 23 HybridMeter_Net.PLC_SN[4].mac PLCMessagesWithErrors ETV
vector 24 HybridMeter_Net.PLC_SN[9].mac PLCMessagesWithErrors ETV
vector 25 HybridMeter_Net.PLC_SN[6].mac PLCTxAttemptsBeforeTx ETV
vector 26 HybridMeter_Net.PLC_SN[6].mac PLCAccessDelay ETV
vector 27 HybridMeter_Net.PLC_SN[6].rflan.wlan.radio transmissionState:vector ETV
attr interpolationmode sample-hold
attr source transmissionStateChanged
attr title "Radio transmission state, vector"
vector 28 HybridMeter_Net.PLC_BN.rflan.wlan.radio receptionState:vector ETV
attr interpolationmode sample-hold
attr source receptionStateChanged
attr title "Radio reception state, vector"
vector 29 HybridMeter_Net.PLC_SN[8].mac PLCTxAttemptsBeforeTx ETV
vector 30 HybridMeter_Net.PLC_SN[8].mac PLCAccessDelay ETV
vector 31 HybridMeter_Net.PLC_SN[1].mac PLCTxAttemptsBeforeTx ETV
vector 32 HybridMeter_Net.PLC_SN[1].mac PLCAccessDelay ETV
vector 33 HybridMeter_Net.PLC_SN[1].rflan.wlan.radio transmissionState:vector ETV
attr interpolationmode sample-hold
attr source transmissionStateChanged
attr title "Radio transmission state, vector"
vector 34 HybridMeter_Net.PLC_SN[5].mac PLCTxAttemptsBeforeTx ETV
vector 35 HybridMeter_Net.PLC_SN[5].mac PLCAccessDelay ETV
vector 36 HybridMeter_Net.PLC_SN[5].rflan.wlan.radio transmissionState:vector ETV
attr interpolationmode sample-hold
attr source transmissionStateChanged
attr title "Radio transmission state, vector"
vector 37 HybridMeter_Net.PLC_SN[3].mac PLCMessagesWithErrors ETV
vector 38 HybridMeter_Net.PLC_SN[2].mac PLCTxAttemptsBeforeTx ETV
vector 39 HybridMeter_Net.PLC_SN[2].mac PLCAccessDelay ETV
vector 40 HybridMeter_Net.PLC_SN[2].rflan.wlan.radio transmissionState:vector ETV
attr interpolationmode sample-hold
attr source transmissionStateChanged
attr title "Radio transmission state, vector"
vector 41 HybridMeter_Net.PLC_BN.mac PLCTxQueueLength ETV
vector 42 HybridMeter_Net.PLC_BN.mac PLCTxQueueLengthALV ETV
vector 43 HybridMeter_Net.PLC_BN.mac PLCTxAttemptsBeforeTx ETV
vector 44 HybridMeter_Net.PLC_BN.mac PLCNumRegNodes ETV
vector 45 HybridMeter_Net.PLC_BN.mac Registering_EUI48 ETV
vector 46 HybridMeter_Net.PLC_SN[0].mac I_sent_REG_REQ ETV
vector 47 HybridMeter_Net.PLC_SN[7].mac I_received_BCN ETV
vector 48 HybridMeter_Net.PLC_SN[7].mac I_sent_REG_REQ ETV
vector 49 HybridMeter_Net.PLC_SN[3].mac I_received_BCN ETV
vector 50 HybridMeter_Net.PLC_SN[3].mac I_sent_REG_REQ ETV
vector 51 HybridMeter_Net.PLC_SN[0].mac PLCTxAttemptsBeforeTx ETV
vector 52 HybridMeter_Net.PLC_SN[0].mac PLCAccessDelay ETV
vector 53 HybridMeter_Net.PLC_SN[7].mac PLCTxAttemptsBeforeTx ETV
vector 54 HybridMeter_Net.PLC_SN[7].mac PLCAccessDelay ETV
vector 55 HybridMeter_Net.PLC_SN[3].mac PLCTxAttemptsBeforeTx ETV
vector 56 HybridMeter_Net.PLC_SN[3].mac PLCAccessDelay ETV
vector 57 HybridMeter_Net.PLC_SN[0].mac PLCMessagesWithErrors ETV
vector 58 HybridMeter_Net.PLC_BN.mac PLCMessagesWithErrors ETV
vector 59 HybridMeter_Net.PLC_SN[6].mac PLCMessagesWithErrors ETV
vector 60 HybridMeter_Net.PLC_SN[7].mac PLCMessagesWithErrors ETV
vector 61 HybridMeter_Net.PLC_SN[8].mac PLCMessagesWithErrors ETV
vector 62 HybridMeter_Net.PLC_SN[4].mac I_received_BCN ETV
vector 63 HybridMeter_Net.PLC_SN[4].mac I_sent_REG_REQ ETV
vector 64 HybridMeter_Net.PLC_SN[4].mac PLCTxAttemptsBeforeTx ETV
vector 65 HybridMeter_Net.PLC_SN[4].mac PLCAccessDelay ETV
0	56	5	0
0	368	5.075518519495	0.008845063769
0	562	5.143254685303	0.008532046118
0	689	5.156034754701	0.021312115516
0	760	5.618241	0
0	998	5.71839964235	0.068591128801
0	1177	5.803457041228	0.127716624102
0	1241	5.830324369587	0.056307821158
0	1353	5.860635305463	0.086618757034
0	1413	6.236482	0
0	1475	6.847003406075	0.008724972847
0	1535	6.854723	0
0	1725	7.472964	0
0	1805	8.091205	0
0	1866	8.106779747486	0.026629918949
0	2000	8.709446	0
0	2077	9.327687	0
0	2154	9.945928	0
0	2221	10.564169	0
0	2300	11.18241	0
1	58	5	2
1	69	5.000768	1
1	370	5.075518519495	2
1	381	5.077278519495	1
1	564	5.143254685303	2
1	575	5.143670685303	1
1	691	5.156034754701	2
1	702	5.156450754701	1
1	1000	5.71839964235	2
1	1011	5.72015964235	1
1	1179	5.803457041228	2
1	1190	5.805217041228	1
1	1537	6.854723	2
1	1548	6.855491	1
1	1727	7.472964	2
1	1738	7.473732	1
1	1868	8.106779747486	2
1	1879	8.107259747486	1
1	2002	8.709446	2
1	2013	8.710214	1
1	2079	9.327687	2
1	2090	9.328455	1
1	2223	10.564169	2
1	2234	10.564937	1
1	2302	11.18241	2
1	2313	11.183178	1
2	59	5.000000074587	3
2	70	5.000768074587	1
2	141	5.014682412985	3
2	230	5.016442412985	2
2	273	5.017594993778	1
2	312	5.046595629229	3
2	336	5.048355629229	1
2	371	5.075518594082	3
2	382	5.077278594082	1
2	440	5.103017676661	3
2	464	5.104777676661	1
2	506	5.13168974728	3
2	530	5.13210574728	1
2	565	5.14325475989	3
2	576	5.14367075989	1
2	634	5.152878298482	3
2	659	5.153294298482	1
2	692	5.156034829288	3
2	703	5.156450829288	1
2	1001	5.718399716937	3
2	1012	5.720159716937	1
2	1180	5.803457115815	3
2	1191	5.805217115815	1
2	1538	6.854723074587	3
2	1549	6.855491074587	1
2	1728	7.472964074587	3
2	1739	7.473732074587	1
2	1869	8.106779822073	3
2	1880	8.107259822073	1
2	1938	8.118021703583	3
2	1962	8.118501703583	1
2	2003	8.709446074587	3
2	2014	8.710214074587	1
2	2080	9.327687074587	3
2	2091	9.328455074587	1
2	2224	10.564169074587	3
2	2235	10.564937074587	1
2	2303	11.182410074587	3
2	2314	11.183178074587	1
3	60	5.000000074587	3
3	71	5.000768074587	1
3	139	5.014682385352	3
3	220	5.016442385352	2
3	265	5.01737893374	1
3	314	5.046595644977	3
3	344	5.048355644977	1
3	372	5.075518594082	3
3	383	5.077278594082	1
3	442	5.103017692409	3
3	472	5.104777692409	1
3	508	5.131689763028	3
3	538	5.132105763028	1
3	566	5.14325475989	3
3	577	5.14367075989	1
3	636	5.15287831423	3
3	667	5.15329431423	1
3	693	5.156034829288	3
3	704	5.156450829288	1
3	1002	5.718399716937	3
3	1013	5.720159716937	1
3	1181	5.803457115815	3
3	1192	5.805217115815	1
3	1539	6.854723074587	3
3	1550	6.855491074587	1
3	1729	7.472964074587	3
3	1740	7.473732074587	1
3	1870	8.106779822073	3
3	1881	8.107259822073	1
3	1940	8.118021719331	3
3	1970	8.118501719331	1
3	2004	8.709446074587	3
3	2015	8.710214074587	1
3	2081	9.327687074587	3
3	2092	9.328455074587	1
3	2225	10.564169074587	3
3	2236	10.564937074587	1
3	2304	11.182410074587	3
3	2315	11.183178074587	1
4	61	5.000000137532	3
4	78	5.000768137532	1
4	138	5.014682385352	3
4	219	5.016442385352	2
4	276	5.017595021411	1
4	307	5.046595562516	3
4	318	5.048355562516	1
4	373	5.075518657027	3
4	390	5.077278657027	1
4	435	5.103017609948	3
4	446	5.104777609948	1
4	501	5.131689680567	3
4	512	5.132105680567	1
4	567	5.143254822835	3
4	584	5.143670822835	1
4	629	5.152878231769	3
4	641	5.153294231769	1
4	694	5.156034892233	3
4	711	5.156450892233	1
4	1003	5.718399779882	3
4	1020	5.720159779882	1
4	1182	5.80345717876	3
4	1199	5.80521717876	1
4	1540	6.854723137532	3
4	1557	6.855491137532	1
4	1730	7.472964137532	3
4	1747	7.473732137532	1
4	1871	8.106779885018	3
4	1888	8.107259885018	1
4	1933	8.11802163687	3
4	1944	8.11850163687	1
4	2005	8.709446137532	3
4	2022	8.710214137532	1
4	2082	9.327687137532	3
4	2099	9.328455137532	1
4	2226	10.564169137532	3
4	2243	10.564937137532	1
4	2305	11.182410137532	3
4	2322	11.183178137532	1
5	62	5.000000137532	3
5	79	5.000768137532	1
5	197	5.015618906107	3
5	261	5.017378906107	2
5	274	5.017594993778	1
5	310	5.046595590149	3
5	328	5.048355590149	1
5	374	5.075518657027	3
5	391	5.077278657027	1
5	438	5.103017637581	3
5	456	5.104777637581	1
5	504	5.1316897082	3
5	522	5.1321057082	1
5	568	5.143254822835	3
5	585	5.143670822835	1
5	632	5.152878259402	3
5	651	5.153294259402	1
5	695	5.156034892233	3
5	712	5.156450892233	1
5	1004	5.718399779882	3
5	1021	5.720159779882	1
5	1183	5.80345717876	3
5	1200	5.80521717876	1
5	1541	6.854723137532	3
5	1558	6.855491137532	1
5	1731	7.472964137532	3
5	1748	7.473732137532	1
5	1872	8.106779885018	3
5	1889	8.107259885018	1
5	1936	8.118021664503	3
5	1954	8.118501664503	1
5	2006	8.709446137532	3
5	2023	8.710214137532	1
5	2083	9.327687137532	3
5	2100	9.328455137532	1
5	2227	10.564169137532	3
5	2244	10.564937137532	1
5	2306	11.182410137532	3
5	2323	11.183178137532	1
6	63	5.000000202899	3
6	86	5.000768202899	1
6	142	5.014682412985	3
6	231	5.016442412985	2
6	278	5.017595076239	1
6	375	5.075518722394	3
6	398	5.077278722394	1
6	569	5.143254888202	3
6	592	5.143670888202	1
6	696	5.1560349576	3
6	719	5.1564509576	1
6	1005	5.718399845249	3
6	1028	5.720159845249	1
6	1184	5.803457244127	3
6	1207	5.805217244127	1
6	1542	6.854723202899	3
6	1565	6.855491202899	1
6	1732	7.472964202899	3
6	1755	7.473732202899	1
6	1873	8.106779950385	3
6	1896	8.107259950385	1
6	2007	8.709446202899	3
6	2030	8.710214202899	1
6	2084	9.327687202899	3
6	2107	9.328455202899	1
6	2228	10.564169202899	3
6	2251	10.564937202899	1
6	2307	11.182410202899	3
6	2330	11.183178202899	1
7	64	5.000000202899	3
7	87	5.000768202899	1
7	140	5.014682385352	3
7	221	5.016442385352	2
7	277	5.017595060491	1
7	309	5.046595562516	3
7	320	5.048355562516	1
7	376	5.075518722394	3
7	399	5.077278722394	1
7	437	5.103017609948	3
7	448	5.104777609948	1
7	503	5.131689680567	3
7	514	5.132105680567	1
7	570	5.143254888202	3
7	593	5.143670888202	1
7	631	5.152878231769	3
7	643	5.153294231769	1
7	697	5.1560349576	3
7	720	5.1564509576	1
7	1006	5.718399845249	3
7	1029	5.720159845249	1
7	1185	5.803457244127	3
7	1208	5.805217244127	1
7	1543	6.854723202899	3
7	1566	6.855491202899	1
7	1733	7.472964202899	3
7	1756	7.473732202899	1
7	1874	8.106779950385	3
7	1897	8.107259950385	1
7	1935	8.11802163687	3
7	1946	8.11850163687	1
7	2008	8.709446202899	3
7	2031	8.710214202899	1
7	2085	9.327687202899	3
7	2108	9.328455202899	1
7	2229	10.564169202899	3
7	2252	10.564937202899	1
7	2308	11.182410202899	3
7	2331	11.183178202899	1
8	65	5.000000268928	3
8	93	5.000768268928	1
8	145	5.014682467813	3
8	246	5.016442467813	2
8	280	5.017595138029	1
8	308	5.046595562516	3
8	319	5.048355562516	1
8	377	5.075518788423	3
8	405	5.077278788423	1
8	436	5.103017609948	3
8	447	5.104777609948	1
8	502	5.131689680567	3
8	513	5.132105680567	1
8	571	5.143254954231	3
8	599	5.143670954231	1
8	630	5.152878231769	3
8	642	5.153294231769	1
8	698	5.156035023629	3
8	726	5.156451023629	1
8	1007	5.718399911278	3
8	1035	5.720159911278	1
8	1186	5.803457310156	3
8	1214	5.805217310156	1
8	1544	6.854723268928	3
8	1572	6.855491268928	1
8	1734	7.472964268928	3
8	1762	7.473732268928	1
8	1875	8.106780016414	3
8	1903	8.107260016414	1
8	1934	8.11802163687	3
8	1945	8.11850163687	1
8	2009	8.709446268928	3
8	2037	8.710214268928	1
8	2086	9.327687268928	3
8	2114	9.328455268928	1
8	2230	10.564169268928	3
8	2258	10.564937268928	1
8	2309	11.182410268928	3
8	2337	11.183178268928	1
9	66	5.000000268928	3
9	94	5.000768268928	1
9	143	5.014682452065	3
9	238	5.016442452065	2
9	279	5.017595127203	1
9	311	5.046595590149	3
9	329	5.048355590149	1
9	378	5.075518788423	3
9	406	5.077278788423	1
9	439	5.103017637581	3
9	457	5.104777637581	1
9	505	5.1316897082	3
9	523	5.1321057082	1
9	572	5.143254954231	3
9	600	5.143670954231	1
9	633	5.152878259402	3
9	652	5.153294259402	1
9	699	5.156035023629	3
9	727	5.156451023629	1
9	1008	5.718399911278	3
9	1036	5.720159911278	1
9	1187	5.803457310156	3
9	1215	5.805217310156	1
9	1545	6.854723268928	3
9	1573	6.855491268928	1
9	1735	7.472964268928	3
9	1763	7.473732268928	1
9	1876	8.106780016414	3
9	1904	8.107260016414	1
9	1937	8.118021664503	3
9	1955	8.118501664503	1
9	2010	8.709446268928	3
9	2038	8.710214268928	1
9	2087	9.327687268928	3
9	2115	9.328455268928	1
9	2231	10.564169268928	3
9	2259	10.564937268928	1
9	2310	11.182410268928	3
9	2338	11.183178268928	1
10	67	5.000000335228	3
10	100	5.000768335228	1
10	147	5.014682529603	3
10	253	5.016442529603	2
10	282	5.017595202129	1
10	313	5.046595629229	3
10	337	5.048355629229	1
10	379	5.075518854723	3
10	412	5.077278854723	1
10	441	5.103017676661	3
10	465	5.104777676661	1
10	507	5.13168974728	3
10	531	5.13210574728	1
10	573	5.143255020531	3
10	606	5.143671020531	1
10	635	5.152878298482	3
10	660	5.153294298482	1
10	700	5.156035089929	3
10	733	5.156451089929	1
10	1009	5.718399977578	3
10	1042	5.720159977578	1
10	1188	5.803457376456	3
10	1221	5.805217376456	1
10	1546	6.854723335228	3
10	1579	6.855491335228	1
10	1736	7.472964335228	3
10	1769	7.473732335228	1
10	1877	8.106780082714	3
10	1910	8.107260082714	1
10	1939	8.118021703583	3
10	1963	8.118501703583	1
10	2011	8.709446335228	3
10	2044	8.710214335228	1
10	2088	9.327687335228	3
10	2121	9.328455335228	1
10	2232	10.564169335228	3
10	2265	10.564937335228	1
10	2311	11.182410335228	3
10	2344	11.183178335228	1
11	68	5.000000335228	3
11	101	5.000768335228	1
11	146	5.014682518777	3
11	249	5.016442518777	2
11	281	5.017595193916	1
11	315	5.046595644977	3
11	345	5.048355644977	1
11	380	5.075518854723	3
11	413	5.077278854723	1
11	443	5.103017692409	3
11	473	5.104777692409	1
11	509	5.131689763028	3
11	539	5.132105763028	1
11	574	5.143255020531	3
11	607	5.143671020531	1
11	637	5.15287831423	3
11	668	5.15329431423	1
11	701	5.156035089929	3
11	734	5.156451089929	1
11	1010	5.718399977578	3
11	1043	5.720159977578	1
11	1189	5.803457376456	3
11	1222	5.805217376456	1
11	1547	6.854723335228	3
11	1580	6.855491335228	1
11	1737	7.472964335228	3
11	1770	7.473732335228	1
11	1878	8.106780082714	3
11	1911	8.107260082714	1
11	1941	8.118021719331	3
11	1971	8.118501719331	1
11	2012	8.709446335228	3
11	2045	8.710214335228	1
11	2089	9.327687335228	3
11	2122	9.328455335228	1
11	2233	10.564169335228	3
11	2266	10.564937335228	1
11	2312	11.182410335228	3
11	2345	11.183178335228	1
12	109	5.007497046555	2
12	805	5.624970071968	2
12	1458	6.243211071968	2
12	1588	6.862220046555	2
12	1778	7.480461046555	2
12	1850	8.097934071968	2
12	2053	8.716943046555	2
12	2130	9.335184046555	2
12	2199	9.952657071968	2
12	2274	10.571666046555	2
13	110	5.007497046555	7
13	1589	6.862220046555	7
13	1779	7.480461046555	7
13	2054	8.716943046555	7
13	2131	9.335184046555	7
13	2275	10.571666046555	7
14	112	5.007497046555	7
15	113	5.0074971095	3
15	1592	6.8622201095	3
15	1782	7.4804611095	3
15	2057	8.7169431095	3
15	2134	9.3351841095	3
15	2278	10.5716661095	3
16	114	5.0074971095	8
16	807	5.624970171968	8
16	1460	6.243211171968	8
16	1593	6.8622201095	8
16	1783	7.4804611095	8
16	1852	8.097934171968	8
16	2058	8.7169431095	8
16	2135	9.3351841095	8
16	2201	9.952657171968	8
16	2279	10.5716661095	8
17	115	5.0074971095	3
18	116	5.0074971095	8
19	117	5.007497174867	4
19	810	5.624970271968	4
19	1463	6.243211271968	4
19	1596	6.862220174867	4
19	1786	7.480461174867	4
19	1855	8.097934271968	4
19	2061	8.716943174867	4
19	2138	9.335184174867	4
19	2204	9.952657271968	4
19	2282	10.571666174867	4
20	118	5.007497174867	4
21	119	5.007497240896	10
21	813	5.624970371968	10
21	1466	6.243211371968	10
21	1598	6.862220240896	10
21	1788	7.480461240896	10
21	1858	8.097934371968	10
21	2063	8.716943240896	10
21	2140	9.335184240896	10
21	2207	9.952657371968	10
21	2284	10.571666240896	10
22	120	5.007497240896	10
23	121	5.007497307196	1
23	428	5.095596611747	2
23	817	5.624970471968	3
23	877	5.649808813549	4
23	940	5.675740917126	5
23	1058	5.738477734602	6
23	1117	5.764233698637	7
23	1172	5.774016848429	8
23	1237	5.82353513348	9
23	1292	5.832941692019	10
23	1348	5.841785149196	11
23	1404	5.863252627895	12
23	1470	6.243211471968	13
23	1526	6.850368392059	14
23	1713	6.897788994228	15
23	1862	8.097934471968	16
23	2065	8.716943307196	17
23	2142	9.335184307196	18
23	2211	9.952657471968	19
24	122	5.007497307196	1
24	429	5.095596611747	2
24	622	5.146287842963	3
24	1059	5.738477734602	4
24	1238	5.82353513348	5
24	1601	6.862220307196	6
24	1791	7.480461307196	7
24	1926	8.110624568698	8
24	2066	8.716943307196	9
24	2143	9.335184307196	10
24	2287	10.571666307196	11
25	135	5.014682318639	0
26	135	5.014682318639	0.007185209139
27	137	5.014682318639	2
27	218	5.016442318639	1
28	144	5.014682456171	3
28	242	5.016442456171	2
28	275	5.017595001652	1
28	316	5.046595698702	3
28	352	5.048355698702	1
28	444	5.103017746134	3
28	480	5.104777746134	1
28	510	5.131689816753	3
28	546	5.132105816753	1
28	638	5.152878367955	3
28	675	5.153294367955	1
28	1942	8.118021773056	3
28	1978	8.118501773056	1
29	148	5.015540794401	0
30	148	5.015540794401	0.008043553505
31	192	5.015618839394	0
32	192	5.015618839394	0.008121729894
33	194	5.015618839394	2
33	258	5.017378839394	1
34	205	5.015834927065	0
35	205	5.015834927065	0.00833788051
36	207	5.015834927065	2
36	272	5.017594927065	1
37	290	5.033859351425	1
38	304	5.046595495803	2
38	432	5.103017543235	0
38	498	5.131689613854	0
38	626	5.152878165056	0
38	1930	8.118021570157	0
39	304	5.046595495803	0.039098320936
39	432	5.103017543235	0.007421063817
39	498	5.131689613854	0.036093134436
39	626	5.152878165056	0.006590454422
39	1930	8.118021570157	0.007397133788
40	306	5.046595495803	2
40	317	5.048355495803	1
40	434	5.103017543235	2
40	445	5.104777543235	1
40	500	5.131689613854	2
40	511	5.132105613854	1
40	628	5.152878165056	2
40	640	5.153294165056	1
40	1932	8.118021570157	2
40	1943	8.118501570157	1
41	365	5.066673455726	1
41	558	5.134722639185	1
41	614	5.145871507735	1
41	873	5.649808513549	1
41	930	5.658444837123	1
41	931	5.661982865981	1
41	932	5.669578348369	1
41	987	5.691756447195	2
41	1051	5.736717399374	1
41	1108	5.747058348086	1
41	1109	5.755875366515	1
41	1166	5.771858633094	1
41	1230	5.821774798252	2
41	1285	5.832941192019	1
41	1341	5.840823129666	1
41	1342	5.840928087836	1
41	1472	6.838278433228	1
41	1795	8.080149828537	1
41	1863	8.100165	1
42	365	5.066673455726	0
42	558	5.134722639185	0
42	614	5.145871507735	0
42	873	5.649808513549	0
42	930	5.658444837123	0
42	931	5.661982865981	0
42	932	5.669578348369	0
42	987	5.691756447195	0
42	1051	5.736717399374	0
42	1108	5.747058348086	0
42	1109	5.755875366515	0
42	1166	5.771858633094	0
42	1230	5.821774798252	0
42	1285	5.832941192019	0
42	1341	5.840823129666	0
42	1342	5.840928087836	0
42	1472	6.838278433228	1
42	1795	8.080149828537	1
42	1863	8.100165	1
43	368	5.075518519495	0
43	562	5.143254685303	0
43	689	5.156034754701	0
43	998	5.71839964235	4
43	1177	5.803457041228	3
43	1241	5.830324369587	0
43	1353	5.860635305463	2
43	1475	6.847003406075	0
43	1866	8.106779747486	0
44	493	5.123095503158	1
44	1111	5.764233398637	2
45	493	5.123095503158	4
45	1111	5.764233398637	2
46	806	5.624970071968	2
47	809	5.624970271968	9
47	1462	6.243211271968	9
47	1854	8.097934271968	9
47	2203	9.952657271968	9
48	811	5.624970271968	9
49	814	5.624970371968	5
49	1467	6.243211371968	5
49	1859	8.097934371968	5
49	2208	9.952657371968	5
50	816	5.624970371968	5
51	824	5.631490656525	0
51	1064	5.745915541613	0
51	1122	5.771399625997	0
51	1297	5.839167926764	0
51	1664	6.894424108244	2
52	824	5.631490656525	0.006520584557
52	1064	5.745915541613	0.007438067652
52	1122	5.771399625997	0.032922152036
52	1297	5.839167926764	0.006226634745
52	1664	6.894424108244	0.044056116185
53	885	5.657422360102	2
54	885	5.657422360102	0.032452088134
55	943	5.686506786557	3
56	943	5.686506786557	0.061536414589
57	991	5.704824843581	1
57	1657	6.887372608884	2
58	992	5.704824943581	1
58	1658	6.887372708884	2
59	993	5.704825143581	1
59	1659	6.887372908884	2
60	994	5.704825243581	1
60	1660	6.887373008884	2
61	995	5.704825343581	1
61	1661	6.887373108884	2
62	1600	6.862220307196	6
62	1790	7.480461307196	6
62	2286	10.571666307196	6
63	1602	6.862220307196	6
64	1608	6.86905445186	0
65	1608	6.86905445186	0.006834144664
vector 66 HybridMeter_Net.PLC_SN[9].mac I_received_BCN ETV
vector 67 HybridMeter_Net.PLC_SN[9].mac I_sent_REG_REQ ETV
vector 68 HybridMeter_Net.PLC_SN[9].mac PLCTxAttemptsBeforeTx ETV
vector 69 HybridMeter_Net.PLC_SN[9].mac PLCAccessDelay ETV
vector 70 HybridMeter_Net.PLC_SN[9].rflan.wlan.radio transmissionState:vector ETV
attr interpolationmode sample-hold
attr source transmissionStateChanged
attr title "Radio transmission state, vector"
0	2377	11.800651	0
0	2444	12.418892	0
0	2521	13.037133	0
0	2598	13.655374	0
0	2665	14.273615	0
0	2744	14.891856	0
0	2823	15.510097	0
0	2890	16.128338	0
0	2967	16.746579	0
0	3044	17.36482	0
0	3111	17.983061	0
0	3190	18.601302	0
0	3267	19.219543	0
0	3334	19.837784	0
0	3483	20.456025	0
0	3635	20.496464356974	0.006441181455
1	2446	12.418892	2
1	2457	12.41966	1
1	2523	13.037133	2
1	2534	13.037901	1
1	2667	14.273615	2
1	2678	14.274383	1
1	2746	14.891856	2
1	2757	14.892624	1
1	2892	16.128338	2
1	2903	16.129106	1
1	2969	16.746579	2
1	2980	16.747347	1
1	3113	17.983061	2
1	3124	17.983829	1
1	3192	18.601302	2
1	3203	18.60207	1
1	3336	19.837784	2
1	3347	19.838552	1
1	3485	20.456025	2
1	3496	20.456793	1
1	3637	20.496464356974	2
1	3648	20.498224356974	1
2	2447	12.418892074587	3
2	2458	12.419660074587	1
2	2524	13.037133074587	3
2	2535	13.037901074587	1
2	2668	14.273615074587	3
2	2679	14.274383074587	1
2	2747	14.891856074587	3
2	2758	14.892624074587	1
2	2893	16.128338074587	3
2	2904	16.129106074587	1
2	2970	16.746579074587	3
2	2981	16.747347074587	1
2	3114	17.983061074587	3
2	3125	17.983829074587	1
2	3193	18.601302074587	3
2	3204	18.602070074587	1
2	3337	19.837784074587	3
2	3348	19.838552074587	1
2	3418	19.853880865303	3
2	3451	19.855640865303	1
2	3486	20.456025074587	3
2	3497	20.456793074587	1
2	3562	20.469945347676	3
2	3575	20.471705347676	1
2	3638	20.496464431561	3
2	3649	20.498224431561	1
2	3705	20.52268776277	3
2	3716	20.52444776277	1
3	2448	12.418892074587	3
3	2459	12.419660074587	1
3	2525	13.037133074587	3
3	2536	13.037901074587	1
3	2669	14.273615074587	3
3	2680	14.274383074587	1
3	2748	14.891856074587	3
3	2759	14.892624074587	1
3	2894	16.128338074587	3
3	2905	16.129106074587	1
3	2971	16.746579074587	3
3	2982	16.747347074587	1
3	3115	17.983061074587	3
3	3126	17.983829074587	1
3	3194	18.601302074587	3
3	3205	18.602070074587	1
3	3338	19.837784074587	3
3	3349	19.838552074587	1
3	3417	19.85388085709	3
3	3447	19.85564085709	1
3	3487	20.456025074587	3
3	3498	20.456793074587	1
3	3565	20.469945375309	3
3	3587	20.471705375309	1
3	3639	20.496464431561	3
3	3650	20.498224431561	1
3	3708	20.522687790403	3
3	3728	20.524447790403	1
4	2449	12.418892137532	3
4	2466	12.419660137532	1
4	2526	13.037133137532	3
4	2543	13.037901137532	1
4	2670	14.273615137532	3
4	2687	14.274383137532	1
4	2749	14.891856137532	3
4	2766	14.892624137532	1
4	2895	16.128338137532	3
4	2912	16.129106137532	1
4	2972	16.746579137532	3
4	2989	16.747347137532	1
4	3116	17.983061137532	3
4	3133	17.983829137532	1
4	3195	18.601302137532	3
4	3212	18.602070137532	1
4	3339	19.837784137532	3
4	3356	19.838552137532	1
4	3416	19.853880801203	3
4	3443	19.855640801203	1
4	3488	20.456025137532	3
4	3505	20.456793137532	1
4	3640	20.496464494506	3
4	3657	20.498224494506	1
5	2450	12.418892137532	3
5	2467	12.419660137532	1
5	2527	13.037133137532	3
5	2544	13.037901137532	1
5	2671	14.273615137532	3
5	2688	14.274383137532	1
5	2750	14.891856137532	3
5	2767	14.892624137532	1
5	2896	16.128338137532	3
5	2913	16.129106137532	1
5	2973	16.746579137532	3
5	2990	16.747347137532	1
5	3117	17.983061137532	3
5	3134	17.983829137532	1
5	3196	18.601302137532	3
5	3213	18.602070137532	1
5	3340	19.837784137532	3
5	3357	19.838552137532	1
5	3415	19.853880790377	3
5	3439	19.855640790377	1
5	3489	20.456025137532	3
5	3506	20.456793137532	1
5	3564	20.469945347676	3
5	3577	20.471705347676	1
5	3641	20.496464494506	3
5	3658	20.498224494506	1
5	3707	20.52268776277	3
5	3718	20.52444776277	1
6	2451	12.418892202899	3
6	2474	12.419660202899	1
6	2528	13.037133202899	3
6	2551	13.037901202899	1
6	2672	14.273615202899	3
6	2695	14.274383202899	1
6	2751	14.891856202899	3
6	2774	14.892624202899	1
6	2897	16.128338202899	3
6	2920	16.129106202899	1
6	2974	16.746579202899	3
6	2997	16.747347202899	1
6	3118	17.983061202899	3
6	3141	17.983829202899	1
6	3197	18.601302202899	3
6	3220	18.602070202899	1
6	3341	19.837784202899	3
6	3364	19.838552202899	1
6	3414	19.853880739413	3
6	3435	19.855640739413	1
6	3490	20.456025202899	3
6	3513	20.456793202899	1
6	3563	20.469945347676	3
6	3576	20.471705347676	1
6	3642	20.496464559873	3
6	3665	20.498224559873	1
6	3706	20.52268776277	3
6	3717	20.52444776277	1
7	2452	12.418892202899	3
7	2475	12.419660202899	1
7	2529	13.037133202899	3
7	2552	13.037901202899	1
7	2673	14.273615202899	3
7	2696	14.274383202899	1
7	2752	14.891856202899	3
7	2775	14.892624202899	1
7	2898	16.128338202899	3
7	2921	16.129106202899	1
7	2975	16.746579202899	3
7	2998	16.747347202899	1
7	3119	17.983061202899	3
7	3142	17.983829202899	1
7	3198	18.601302202899	3
7	3221	18.602070202899	1
7	3342	19.837784202899	3
7	3365	19.838552202899	1
7	3413	19.853880723665	3
7	3432	19.855640723665	1
7	3491	20.456025202899	3
7	3514	20.456793202899	1
7	3566	20.469945375309	3
7	3588	20.471705375309	1
7	3643	20.496464559873	3
7	3666	20.498224559873	1
7	3709	20.522687790403	3
7	3729	20.524447790403	1
8	2453	12.418892268928	3
8	2481	12.419660268928	1
8	2530	13.037133268928	3
8	2558	13.037901268928	1
8	2674	14.273615268928	3
8	2702	14.274383268928	1
8	2753	14.891856268928	3
8	2781	14.892624268928	1
8	2899	16.128338268928	3
8	2927	16.129106268928	1
8	2976	16.746579268928	3
8	3004	16.747347268928	1
8	3120	17.983061268928	3
8	3148	17.983829268928	1
8	3199	18.601302268928	3
8	3227	18.602070268928	1
8	3343	19.837784268928	3
8	3371	19.838552268928	1
8	3412	19.853880684585	3
8	3429	19.855640684585	1
8	3492	20.456025268928	3
8	3520	20.456793268928	1
8	3567	20.469945414389	3
8	3594	20.471705414389	1
8	3644	20.496464625902	3
8	3672	20.498224625902	1
8	3710	20.522687829483	3
8	3735	20.524447829483	1
9	2454	12.418892268928	3
9	2482	12.419660268928	1
9	2531	13.037133268928	3
9	2559	13.037901268928	1
9	2675	14.273615268928	3
9	2703	14.274383268928	1
9	2754	14.891856268928	3
9	2782	14.892624268928	1
9	2900	16.128338268928	3
9	2928	16.129106268928	1
9	2977	16.746579268928	3
9	3005	16.747347268928	1
9	3121	17.983061268928	3
9	3149	17.983829268928	1
9	3200	18.601302268928	3
9	3228	18.602070268928	1
9	3344	19.837784268928	3
9	3372	19.838552268928	1
9	3411	19.853880656952	3
9	3422	19.855640656952	1
9	3493	20.456025268928	3
9	3521	20.456793268928	1
9	3569	20.469945430137	3
9	3601	20.471705430137	1
9	3645	20.496464625902	3
9	3673	20.498224625902	1
9	3712	20.522687845231	3
10	2455	12.418892335228	3
10	2488	12.419660335228	1
10	2532	13.037133335228	3
10	2565	13.037901335228	1
10	2676	14.273615335228	3
10	2709	14.274383335228	1
10	2755	14.891856335228	3
10	2788	14.892624335228	1
10	2901	16.128338335228	3
10	2934	16.129106335228	1
10	2978	16.746579335228	3
10	3011	16.747347335228	1
10	3122	17.983061335228	3
10	3155	17.983829335228	1
10	3201	18.601302335228	3
10	3234	18.602070335228	1
10	3345	19.837784335228	3
10	3378	19.838552335228	1
10	3410	19.853880656952	3
10	3421	19.855640656952	1
10	3494	20.456025335228	3
10	3527	20.456793335228	1
10	3570	20.469945481101	3
10	3605	20.471705481101	1
10	3646	20.496464692202	3
10	3679	20.498224692202	1
10	3713	20.522687896195	3
11	2456	12.418892335228	3
11	2489	12.419660335228	1
11	2533	13.037133335228	3
11	2566	13.037901335228	1
11	2677	14.273615335228	3
11	2710	14.274383335228	1
11	2756	14.891856335228	3
11	2789	14.892624335228	1
11	2902	16.128338335228	3
11	2935	16.129106335228	1
11	2979	16.746579335228	3
11	3012	16.747347335228	1
11	3123	17.983061335228	3
11	3156	17.983829335228	1
11	3202	18.601302335228	3
11	3235	18.602070335228	1
11	3346	19.837784335228	3
11	3379	19.838552335228	1
11	3495	20.456025335228	3
11	3528	20.456793335228	1
11	3571	20.469945491927	3
11	3609	20.471705491927	1
11	3647	20.496464692202	3
11	3680	20.498224692202	1
11	3714	20.522687907021	3
12	2353	11.189907046555	2
12	2422	11.807380071968	2
12	2497	12.426389046555	2
12	2574	13.044630046555	2
12	2643	13.662103071968	2
12	2718	14.281112046555	2
12	2797	14.899353046555	2
12	2868	15.516826071968	2
12	2943	16.135835046555	2
12	3020	16.754076046555	2
12	3089	17.371549071968	2
12	3164	17.990558046555	2
12	3243	18.608799046555	2
12	3312	19.226272071968	2
12	3387	19.845281046555	2
12	3536	20.463522046555	2
13	2354	11.189907046555	7
13	2498	12.426389046555	7
13	2575	13.044630046555	7
13	2719	14.281112046555	7
13	2798	14.899353046555	7
13	2944	16.135835046555	7
13	3021	16.754076046555	7
13	3165	17.990558046555	7
13	3244	18.608799046555	7
13	3388	19.845281046555	7
13	3537	20.463522046555	7
15	2357	11.1899071095	3
15	2501	12.4263891095	3
15	2578	13.0446301095	3
15	2722	14.2811121095	3
15	2801	14.8993531095	3
15	2947	16.1358351095	3
15	3024	16.7540761095	3
15	3168	17.9905581095	3
15	3247	18.6087991095	3
15	3391	19.8452811095	3
15	3540	20.4635221095	3
16	2358	11.1899071095	8
16	2424	11.807380171968	8
16	2502	12.4263891095	8
16	2579	13.0446301095	8
16	2645	13.662103171968	8
16	2723	14.2811121095	8
16	2802	14.8993531095	8
16	2870	15.516826171968	8
16	2948	16.1358351095	8
16	3025	16.7540761095	8
16	3091	17.371549171968	8
16	3169	17.9905581095	8
16	3248	18.6087991095	8
16	3314	19.226272171968	8
16	3392	19.8452811095	8
16	3541	20.4635221095	8
19	2361	11.189907174867	4
19	2427	11.807380271968	4
19	2505	12.426389174867	4
19	2582	13.044630174867	4
19	2648	13.662103271968	4
19	2726	14.281112174867	4
19	2805	14.899353174867	4
19	2873	15.516826271968	4
19	2951	16.135835174867	4
19	3028	16.754076174867	4
19	3094	17.371549271968	4
19	3172	17.990558174867	4
19	3251	18.608799174867	4
19	3317	19.226272271968	4
19	3395	19.845281174867	4
19	3544	20.463522174867	4
21	2363	11.189907240896	10
21	2430	11.807380371968	10
21	2507	12.426389240896	10
21	2584	13.044630240896	10
21	2651	13.662103371968	10
21	2728	14.281112240896	10
21	2807	14.899353240896	10
21	2876	15.516826371968	10
21	2953	16.135835240896	10
21	3030	16.754076240896	10
21	3097	17.371549371968	10
21	3174	17.990558240896	10
21	3253	18.608799240896	10
21	3320	19.226272371968	10
21	3397	19.845281240896	10
21	3546	20.463522240896	10
23	2365	11.189907307196	20
23	2434	11.807380471968	21
23	2509	12.426389307196	22
23	2586	13.044630307196	23
23	2655	13.662103471968	24
23	2880	15.516826471968	25
23	2955	16.135835307196	26
23	3032	16.754076307196	27
23	3101	17.371549471968	28
23	3255	18.608799307196	29
23	3324	19.226272471968	30
23	3698	20.516542449226	31
24	2366	11.189907307196	12
24	2510	12.426389307196	13
24	2587	13.044630307196	14
24	2731	14.281112307196	15
24	2810	14.899353307196	16
24	2956	16.135835307196	17
24	3033	16.754076307196	18
24	3177	17.990558307196	19
24	3256	18.608799307196	20
24	3549	20.463522307196	21
24	3699	20.516542449226	22
28	3419	19.853880925467	3
28	3455	19.855640925467	1
28	3568	20.469945418495	3
28	3597	20.471705418495	1
28	3711	20.522687833589	3
28	3738	20.524447833589	1
31	3559	20.469945280963	0
31	3702	20.522687696057	0
32	3559	20.469945280963	15.462448171463
32	3702	20.522687696057	0.006145444527
33	3561	20.469945280963	2
33	3574	20.471705280963	1
33	3704	20.522687696057	2
33	3715	20.524447696057	1
41	3629	20.490023175519	1
42	3629	20.490023175519	0
43	3635	20.496464356974	0
47	2426	11.807380271968	9
47	2647	13.662103271968	9
47	2872	15.516826271968	9
47	3093	17.371549271968	9
47	3316	19.226272271968	9
49	2431	11.807380371968	5
49	2652	13.662103371968	5
49	2877	15.516826371968	5
49	3098	17.371549371968	5
49	3321	19.226272371968	5
58	3468	19.873958682491	3
62	2730	14.281112307196	6
62	2809	14.899353307196	6
62	3176	17.990558307196	6
62	3399	19.845281307196	6
62	3548	20.463522307196	6
66	3400	19.845281307196	11
67	3402	19.845281307196	11
68	3407	19.853880590239	0
69	3407	19.853880590239	0.008599283043
70	3409	19.853880590239	2
70	3420	19.855640590239	1
vector 71 HybridMeter_Net.PLC_SN[2].mac PLCMessagesWithErrors ETV
vector 72 HybridMeter_Net.PLC_SN[6].mac PLCnumberOfmacSCPMaxTxAttempts ETV
0	3834	20.560068619957	0.009825651716
0	4092	20.661770036434	0.111527068193
0	4156	20.673520955141	0.046120359129
0	4222	20.698286855759	15.022546438633
0	4420	20.792228732541	0.009029566303
0	4499	20.803222361694	0.020023195456
0	4644	20.933813293242	0.006435648301
0	4837	21.002039027213	0.006717832516
0	4904	21.012600866641	0.017279671944
0	5040	21.074266	0
0	5117	21.692507	0
0	5191	21.920201745669	0.007503031823
0	5377	22.02139495109	0.007713331644
0	5512	22.310748	0
0	5690	22.378352584445	0.033593254803
0	5760	22.928989	0
0	5832	23.087994923239	0.006382192952
0	5966	23.54723	0
0	6045	24.165471	0
0	6112	24.783712	0
0	6189	25.401953	0
0	6266	26.020194	0
0	6333	26.638435	0
0	6412	27.256676	0
0	6491	27.874917	0
0	6558	28.493158	0
0	6635	29.111399	0
0	6712	29.72964	0
0	6779	30.347881	0
0	6856	30.966122	0
0	6933	31.584363	0
0	7000	32.202604	0
0	7077	32.820845	0
0	7154	33.439086	0
0	7221	34.057327	0
0	7300	34.675568	0
0	7383	35.293809	0
0	7502	35.790099692307	15.006900526069
0	7572	35.91205	0
0	7708	35.93884210421	0.006771436779
0	7809	36.530291	0
0	7880	36.54782266266	0.615751995229
0	7951	37.148532	0
0	8125	37.228528862138	0.00964618302
0	8195	37.766773	0
0	8272	38.385014	0
0	8405	39.003255	0
0	8472	39.621496	0
0	8551	40.239737	0
0	8630	40.857978	0
0	8697	41.476219	0
0	8774	42.09446	0
0	8851	42.712701	0
0	8918	43.330942	0
0	8997	43.949183	0
0	9076	44.567424	0
0	9143	45.185665	0
0	9220	45.803906	0
0	9297	46.422147	0
0	9364	47.040388	0
0	9441	47.658629	0
0	9518	48.27687	0
0	9585	48.895111	0
0	9730	49.513352	0
0	9809	50.131593	0
0	9932	50.749834	0
0	10004	50.790433071419	30.007233905181
0	10133	50.939148064412	15.007077396981
0	10267	51.368075	0
0	10345	51.986316	0
0	10465	52.029036707549	0.008977701828
0	10589	52.604557	0
0	10722	53.222798	0
0	10799	53.841039	0
0	10866	54.45928	0
0	10943	55.077521	0
0	11020	55.695762	0
0	11087	56.314003	0
0	11166	56.932244	0
0	11311	57.550485	0
0	11378	58.168726	0
0	11455	58.786967	0
0	11532	59.405208	0
0	11599	60.023449	0
0	11678	60.64169	0
0	11755	61.259931	0
0	11822	61.878172	0
0	11899	62.496413	0
0	11976	63.114654	0
0	12043	63.732895	0
0	12120	64.351136	0
0	12202	64.969377	0
0	12270	65.587618	0
0	12466	66.205859	0
0	12545	66.8241	0
0	12720	66.895783142969	0.009975028524
0	12790	67.442341	0
0	12923	68.060582	0
0	13000	68.678823	0
0	13067	69.297064	0
0	13148	69.915305	0
0	13225	70.533546	0
0	13292	71.151787	0
0	13369	71.770028	0
0	13446	72.388269	0
0	13513	73.00651	0
0	13590	73.624751	0
0	13667	74.242992	0
0	13734	74.861233	0
0	13815	75.479474	0
0	13894	76.097715	0
0	13961	76.715956	0
0	14042	77.334197	0
0	14119	77.952438	0
0	14186	78.570679	0
0	14265	79.18892	0
0	14344	79.807161	0
0	14413	80.425402	0
0	14541	80.8475947308	0.009316297572
0	14655	81.043643	0
0	14732	81.661884	0
0	14907	81.786468870507	0.008623614033
0	14973	82.086389641252	0.006239812715
0	15107	82.280125	0
0	15184	82.898366	0
0	15261	83.516607	0
0	15328	84.134848	0
0	15405	84.753089	0
0	15599	85.37133	0
0	15666	85.989571	0
0	15743	86.607812	0
0	15822	87.226053	0
0	15889	87.844294	0
0	15966	88.462535	0
0	16043	89.080776	0
0	16110	89.699017	0
0	16187	90.317258	0
0	16266	90.935499	0
0	16333	91.55374	0
0	16410	92.171981	0
0	16487	92.790222	0
0	16554	93.408463	0
0	16631	94.026704	0
0	16708	94.644945	0
0	16777	95.263186	0
0	16912	95.881427	0
1	3836	20.560068619957	2
1	3847	20.560484619957	1
1	4094	20.661770036434	2
1	4105	20.662186036434	1
1	4158	20.673520955141	2
1	4169	20.675280955141	1
1	4224	20.698286855759	2
1	4235	20.700046855759	1
1	4422	20.792228732541	2
1	4433	20.792644732541	1
1	4501	20.803222361694	2
1	4551	20.803638361694	1
1	4646	20.933813293242	2
1	4657	20.935573293242	1
1	4839	21.002039027213	2
1	4850	21.002455027213	1
1	4906	21.012600866641	2
1	4917	21.013016866641	1
1	5042	21.074266	2
1	5053	21.075034	1
1	5119	21.692507	2
1	5130	21.693275	1
1	5193	21.920201745669	2
1	5204	21.920681745669	1
1	5379	22.02139495109	2
1	5390	22.02187495109	1
1	5692	22.378352584445	2
1	5703	22.380112584445	1
1	5762	22.928989	2
1	5773	22.929757	1
1	5834	23.087994923239	2
1	5845	23.088474923239	1
1	5968	23.54723	2
1	5979	23.547998	1
1	6114	24.783712	2
1	6125	24.78448	1
1	6191	25.401953	2
1	6202	25.402721	1
1	6335	26.638435	2
1	6346	26.639203	1
1	6414	27.256676	2
1	6425	27.257444	1
1	6560	28.493158	2
1	6571	28.493926	1
1	6637	29.111399	2
1	6648	29.112167	1
1	6781	30.347881	2
1	6792	30.348649	1
1	6858	30.966122	2
1	6869	30.96689	1
1	7002	32.202604	2
1	7013	32.203372	1
1	7079	32.820845	2
1	7090	32.821613	1
1	7223	34.057327	2
1	7234	34.058095	1
1	7302	34.675568	2
1	7313	34.676336	1
1	7504	35.790099692307	2
1	7515	35.790515692307	1
1	7574	35.91205	2
1	7585	35.912818	1
1	7710	35.93884210421	2
1	7734	35.93925810421	1
1	7811	36.530291	2
1	7822	36.531059	1
1	7882	36.54782266266	2
1	7893	36.54823866266	1
1	8127	37.228528862138	2
1	8138	37.230288862138	1
1	8197	37.766773	2
1	8208	37.767541	1
1	8274	38.385014	2
1	8285	38.385782	1
1	8474	39.621496	2
1	8485	39.622264	1
1	8553	40.239737	2
1	8564	40.240505	1
1	8699	41.476219	2
1	8710	41.476987	1
1	8776	42.09446	2
1	8787	42.095228	1
1	8920	43.330942	2
1	8931	43.33171	1
1	8999	43.949183	2
1	9010	43.949951	1
1	9145	45.185665	2
1	9156	45.186433	1
1	9222	45.803906	2
1	9233	45.804674	1
1	9366	47.040388	2
1	9377	47.041156	1
1	9443	47.658629	2
1	9454	47.659397	1
1	9587	48.895111	2
1	9598	48.895879	1
1	9732	49.513352	2
1	9743	49.51412	1
1	9934	50.749834	2
1	9945	50.750602	1
1	10006	50.790433071419	2
1	10017	50.790849071419	1
1	10135	50.939148064412	2
1	10146	50.939564064412	1
1	10269	51.368075	2
1	10280	51.368843	1
1	10467	52.029036707549	2
1	10478	52.030796707549	1
1	10591	52.604557	2
1	10602	52.605325	1
1	10724	53.222798	2
1	10735	53.223566	1
1	10868	54.45928	2
1	10879	54.460048	1
1	10945	55.077521	2
1	10956	55.078289	1
1	11089	56.314003	2
1	11100	56.314771	1
1	11168	56.932244	2
1	11179	56.933012	1
1	11380	58.168726	2
1	11391	58.169494	1
1	11457	58.786967	2
1	11468	58.787735	1
1	11601	60.023449	2
1	11612	60.024217	1
1	11680	60.64169	2
1	11691	60.642458	1
1	11824	61.878172	2
1	11835	61.87894	1
1	11901	62.496413	2
1	11912	62.497181	1
1	12045	63.732895	2
1	12056	63.733663	1
1	12122	64.351136	2
1	12133	64.351904	1
1	12272	65.587618	2
1	12283	65.588386	1
1	12468	66.205859	2
1	12479	66.206627	1
1	12722	66.895783142969	2
1	12733	66.897543142969	1
1	12792	67.442341	2
1	12803	67.443109	1
1	12925	68.060582	2
1	12936	68.06135	1
1	13069	69.297064	2
1	13080	69.297832	1
1	13150	69.915305	2
1	13161	69.916073	1
1	13294	71.151787	2
1	13305	71.152555	1
1	13371	71.770028	2
1	13382	71.770796	1
1	13515	73.00651	2
1	13526	73.007278	1
1	13592	73.624751	2
1	13603	73.625519	1
1	13736	74.861233	2
1	13747	74.862001	1
1	13817	75.479474	2
1	13828	75.480242	1
1	13963	76.715956	2
1	13974	76.716724	1
1	14044	77.334197	2
1	14055	77.334965	1
1	14188	78.570679	2
1	14199	78.571447	1
1	14267	79.18892	2
1	14278	79.189688	1
1	14415	80.425402	2
1	14426	80.42617	1
1	14657	81.043643	2
1	14668	81.044411	1
1	14909	81.786468870507	2
1	14920	81.788228870507	1
1	14975	82.086389641252	2
1	14986	82.086869641252	1
1	15109	82.280125	2
1	15120	82.280893	1
1	15186	82.898366	2
1	15197	82.899134	1
1	15330	84.134848	2
1	15341	84.135616	1
1	15407	84.753089	2
1	15418	84.753857	1
1	15668	85.989571	2
1	15679	85.990339	1
1	15745	86.607812	2
1	15756	86.60858	1
1	15891	87.844294	2
1	15902	87.845062	1
1	15968	88.462535	2
1	15979	88.463303	1
1	16112	89.699017	2
1	16123	89.699785	1
1	16189	90.317258	2
1	16200	90.318026	1
1	16335	91.55374	2
1	16346	91.554508	1
1	16412	92.171981	2
1	16423	92.172749	1
1	16556	93.408463	2
1	16567	93.409231	1
1	16633	94.026704	2
1	16644	94.027472	1
1	16779	95.263186	2
1	16790	95.263954	1
1	16914	95.881427	2
1	16925	95.882195	1
2	3772	20.54721007499	3
2	3783	20.54762607499	1
2	3837	20.560068694544	3
2	3848	20.560484694544	1
2	3903	20.570143815552	3
2	3915	20.570559815552	1
2	4028	20.607322831114	3
2	4039	20.609082831114	1
2	4095	20.661770111021	3
2	4106	20.662186111021	1
2	4159	20.673521029728	3
2	4170	20.675281029728	1
2	4225	20.698286930346	3
2	4236	20.700046930346	1
2	4292	20.751985391813	3
2	4303	20.753745391813	1
2	4359	20.780166335932	3
2	4370	20.780582335932	1
2	4423	20.792228807128	3
2	4434	20.792644807128	1
2	4489	20.802879655069	3
2	4513	20.803295655069	2
2	4552	20.803638436281	1
2	4586	20.907299844731	3
2	4605	20.909059844731	1
2	4647	20.933813367829	3
2	4658	20.935573367829	1
2	4714	20.96383416089	3
2	4733	20.96559416089	1
2	4780	20.992288329079	3
2	4799	20.992704329079	1
2	4840	21.0020391018	3
2	4851	21.0024551018	1
2	4907	21.012600941228	3
2	4918	21.013016941228	1
2	4975	21.026490559491	3
2	4994	21.026906559491	1
2	5043	21.074266074587	3
2	5054	21.075034074587	1
2	5120	21.692507074587	3
2	5131	21.693275074587	1
2	5194	21.920201820256	3
2	5205	21.920681820256	1
2	5263	21.931987552266	3
2	5282	21.932467552266	1
2	5380	22.021395025677	3
2	5391	22.021875025677	1
2	5444	22.03351723025	3
2	5455	22.03399723025	1
2	5693	22.378352659032	3
2	5704	22.380112659032	1
2	5763	22.928989074587	3
2	5774	22.929757074587	1
2	5835	23.087994997826	3
2	5846	23.088474997826	1
2	5899	23.099494864351	3
2	5910	23.099974864351	1
2	5969	23.547230074587	3
2	5980	23.547998074587	1
2	6115	24.783712074587	3
2	6126	24.784480074587	1
2	6192	25.401953074587	3
2	6203	25.402721074587	1
2	6336	26.638435074587	3
2	6347	26.639203074587	1
2	6415	27.256676074587	3
2	6426	27.257444074587	1
2	6561	28.493158074587	3
2	6572	28.493926074587	1
2	6638	29.111399074587	3
2	6649	29.112167074587	1
2	6782	30.347881074587	3
2	6793	30.348649074587	1
2	6859	30.966122074587	3
2	6870	30.966890074587	1
2	7003	32.202604074587	3
2	7014	32.203372074587	1
2	7080	32.820845074587	3
2	7091	32.821613074587	1
2	7224	34.057327074587	3
2	7235	34.058095074587	1
2	7303	34.675568074587	3
2	7314	34.676336074587	1
2	7505	35.790099766894	3
2	7516	35.790515766894	1
2	7575	35.912050074587	3
2	7586	35.912818074587	1
2	7646	35.929037837125	3
2	7657	35.929453837125	1
2	7711	35.938842178797	3
2	7735	35.939258178797	2
2	7775	35.939527989247	1
2	7812	36.530291074587	3
2	7823	36.531059074587	1
2	7883	36.547822737247	3
2	7894	36.548238737247	1
2	8128	37.228528936725	3
2	8139	37.230288936725	1
2	8198	37.766773074587	3
2	8209	37.767541074587	1
2	8275	38.385014074587	3
2	8286	38.385782074587	1
2	8475	39.621496074587	3
2	8486	39.622264074587	1
2	8554	40.239737074587	3
2	8565	40.240505074587	1
2	8700	41.476219074587	3
2	8711	41.476987074587	1
2	8777	42.094460074587	3
2	8788	42.095228074587	1
2	8921	43.330942074587	3
2	8932	43.331710074587	1
2	9000	43.949183074587	3
2	9011	43.949951074587	1
2	9146	45.185665074587	3
2	9157	45.186433074587	1
2	9223	45.803906074587	3
2	9234	45.804674074587	1
2	9367	47.040388074587	3
2	9378	47.041156074587	1
2	9444	47.658629074587	3
2	9455	47.659397074587	1
2	9588	48.895111074587	3
2	9599	48.895879074587	1
2	9669	48.908886502732	3
2	9702	48.910646502732	1
2	9733	49.513352074587	3
2	9744	49.514120074587	1
2	9935	50.749834074587	3
2	9946	50.750602074587	1
2	10007	50.790433146006	3
2	10018	50.790849146006	1
2	10071	50.802326022832	3
2	10082	50.802742022832	1
2	10136	50.939148138999	3
2	10147	50.939564138999	1
2	10199	50.949384844595	3
2	10211	50.949800844595	1
2	10270	51.368075074587	3
2	10281	51.368843074587	1
2	10468	52.029036782136	3
2	10479	52.030796782136	1
2	10592	52.604557074587	3
2	10603	52.605325074587	1
2	10725	53.222798074587	3
2	10736	53.223566074587	1
2	10869	54.459280074587	3
2	10880	54.460048074587	1
2	10946	55.077521074587	3
2	10957	55.078289074587	1
2	11090	56.314003074587	3
2	11101	56.314771074587	1
2	11169	56.932244074587	3
2	11180	56.933012074587	1
2	11250	56.947801823172	3
2	11283	56.949561823172	1
2	11381	58.168726074587	3
2	11392	58.169494074587	1
2	11458	58.786967074587	3
2	11469	58.787735074587	1
2	11602	60.023449074587	3
2	11613	60.024217074587	1
2	11681	60.641690074587	3
2	11692	60.642458074587	1
2	11825	61.878172074587	3
2	11836	61.878940074587	1
2	11902	62.496413074587	3
2	11913	62.497181074587	1
2	12046	63.732895074587	3
2	12057	63.733663074587	1
2	12123	64.351136074587	3
2	12134	64.351904074587	1
2	12273	65.587618074587	3
2	12284	65.588386074587	1
2	12400	65.60437187486	3
2	12433	65.60613187486	1
2	12469	66.205859074587	3
2	12480	66.206627074587	1
2	12723	66.895783217556	3
2	12734	66.897543217556	1
2	12793	67.442341074587	3
2	12804	67.443109074587	1
2	12926	68.060582074587	3
2	12937	68.061350074587	1
2	13070	69.297064074587	3
2	13081	69.297832074587	1
2	13151	69.915305074587	3
2	13162	69.916073074587	1
2	13295	71.151787074587	3
2	13306	71.152555074587	1
2	13372	71.770028074587	3
2	13383	71.770796074587	1
2	13516	73.006510074587	3
2	13527	73.007278074587	1
2	13593	73.624751074587	3
2	13604	73.625519074587	1
2	13737	74.861233074587	3
2	13748	74.862001074587	1
2	13818	75.479474074587	3
2	13829	75.480242074587	1
2	13964	76.715956074587	3
2	13975	76.716724074587	1
2	14045	77.334197074587	3
2	14056	77.334965074587	1
2	14189	78.570679074587	3
2	14200	78.571447074587	1
2	14268	79.188920074587	3
2	14279	79.189688074587	1
2	14416	80.425402074587	3
2	14427	80.426170074587	1
2	14658	81.043643074587	3
2	14669	81.044411074587	1
2	14910	81.786468945094	3
2	14921	81.788228945094	1
2	14976	82.086389715839	3
2	14987	82.086869715839	1
2	15045	82.100222163248	3
2	15069	82.100702163248	1
2	15110	82.280125074587	3
2	15121	82.280893074587	1
2	15187	82.898366074587	3
2	15198	82.899134074587	1
2	15331	84.134848074587	3
2	15342	84.135616074587	1
2	15408	84.753089074587	3
2	15419	84.753857074587	1
2	15535	84.769338853671	3
2	15568	84.771098853671	1
2	15669	85.989571074587	3
2	15680	85.990339074587	1
2	15746	86.607812074587	3
2	15757	86.608580074587	1
2	15892	87.844294074587	3
2	15903	87.845062074587	1
2	15969	88.462535074587	3
2	15980	88.463303074587	1
2	16113	89.699017074587	3
2	16124	89.699785074587	1
2	16190	90.317258074587	3
2	16201	90.318026074587	1
2	16336	91.553740074587	3
2	16347	91.554508074587	1
2	16413	92.171981074587	3
2	16424	92.172749074587	1
2	16557	93.408463074587	3
2	16568	93.409231074587	1
2	16634	94.026704074587	3
2	16645	94.027472074587	1
2	16780	95.263186074587	3
2	16791	95.263954074587	1
2	16915	95.881427074587	3
2	16926	95.882195074587	1
2	16996	95.899291251801	3
2	17029	95.901051251801	1
3	3775	20.547210102623	3
3	3795	20.547626102623	1
3	3838	20.560068694544	3
3	3849	20.560484694544	1
3	3906	20.570143843185	3
3	3927	20.570559843185	1
3	4096	20.661770111021	3
3	4107	20.662186111021	1
3	4160	20.673521029728	3
3	4171	20.675281029728	1
3	4226	20.698286930346	3
3	4237	20.700046930346	1
3	4424	20.792228807128	3
3	4435	20.792644807128	1
3	4503	20.803222436281	3
3	4553	20.803638436281	1
3	4584	20.907299817098	3
3	4595	20.909059817098	1
3	4648	20.933813367829	3
3	4659	20.935573367829	1
3	4712	20.963834133257	3
3	4723	20.965594133257	1
3	4778	20.992288301446	3
3	4789	20.992704301446	1
3	4841	21.0020391018	3
3	4852	21.0024551018	1
3	4908	21.012600941228	3
3	4919	21.013016941228	1
3	4973	21.026490531858	3
3	4984	21.026906531858	1
3	5044	21.074266074587	3
3	5055	21.075034074587	1
3	5121	21.692507074587	3
3	5132	21.693275074587	1
3	5195	21.920201820256	3
3	5206	21.920681820256	1
3	5261	21.931987524633	3
3	5272	21.932467524633	1
3	5381	22.021395025677	3
3	5392	22.021875025677	1
3	5447	22.033517257883	3
3	5467	22.033997257883	1
3	5694	22.378352659032	3
3	5705	22.380112659032	1
3	5764	22.928989074587	3
3	5775	22.929757074587	1
3	5836	23.087994997826	3
3	5847	23.088474997826	1
3	5970	23.547230074587	3
3	5981	23.547998074587	1
3	6116	24.783712074587	3
3	6127	24.784480074587	1
3	6193	25.401953074587	3
3	6204	25.402721074587	1
3	6337	26.638435074587	3
3	6348	26.639203074587	1
3	6416	27.256676074587	3
3	6427	27.257444074587	1
3	6562	28.493158074587	3
3	6573	28.493926074587	1
3	6639	29.111399074587	3
3	6650	29.112167074587	1
3	6783	30.347881074587	3
3	6794	30.348649074587	1
3	6860	30.966122074587	3
3	6871	30.966890074587	1
3	7004	32.202604074587	3
3	7015	32.203372074587	1
3	7081	32.820845074587	3
3	7092	32.821613074587	1
3	7225	34.057327074587	3
3	7236	34.058095074587	1
3	7304	34.675568074587	3
3	7315	34.676336074587	1
3	7506	35.790099766894	3
3	7517	35.790515766894	1
3	7576	35.912050074587	3
3	7587	35.912818074587	1
3	7712	35.938842178797	3
3	7736	35.939258178797	1
3	7813	36.530291074587	3
3	7824	36.531059074587	1
3	7884	36.547822737247	3
3	7895	36.548238737247	1
3	8129	37.228528936725	3
3	8140	37.230288936725	1
3	8199	37.766773074587	3
3	8210	37.767541074587	1
3	8276	38.385014074587	3
3	8287	38.385782074587	1
3	8476	39.621496074587	3
3	8487	39.622264074587	1
3	8555	40.239737074587	3
3	8566	40.240505074587	1
3	8701	41.476219074587	3
3	8712	41.476987074587	1
3	8778	42.094460074587	3
3	8789	42.095228074587	1
3	8922	43.330942074587	3
3	8933	43.331710074587	1
3	9001	43.949183074587	3
3	9012	43.949951074587	1
3	9147	45.185665074587	3
3	9158	45.186433074587	1
3	9224	45.803906074587	3
3	9235	45.804674074587	1
3	9368	47.040388074587	3
3	9379	47.041156074587	1
3	9445	47.658629074587	3
3	9456	47.659397074587	1
3	9589	48.895111074587	3
3	9600	48.895879074587	1
3	9668	48.908886494519	3
3	9698	48.910646494519	1
3	9734	49.513352074587	3
3	9745	49.514120074587	1
3	9936	50.749834074587	3
3	9947	50.750602074587	1
3	10008	50.790433146006	3
3	10019	50.790849146006	1
3	10137	50.939148138999	3
3	10148	50.939564138999	1
3	10271	51.368075074587	3
3	10282	51.368843074587	1
3	10469	52.029036782136	3
3	10480	52.030796782136	1
3	10593	52.604557074587	3
3	10604	52.605325074587	1
3	10726	53.222798074587	3
3	10737	53.223566074587	1
3	10870	54.459280074587	3
3	10881	54.460048074587	1
3	10947	55.077521074587	3
3	10958	55.078289074587	1
3	11091	56.314003074587	3
3	11102	56.314771074587	1
3	11170	56.932244074587	3
3	11181	56.933012074587	1
3	11249	56.947801814959	3
3	11279	56.949561814959	1
3	11382	58.168726074587	3
3	11393	58.169494074587	1
3	11459	58.786967074587	3
3	11470	58.787735074587	1
3	11603	60.023449074587	3
3	11614	60.024217074587	1
3	11682	60.641690074587	3
3	11693	60.642458074587	1
3	11826	61.878172074587	3
3	11837	61.878940074587	1
3	11903	62.496413074587	3
3	11914	62.497181074587	1
3	12047	63.732895074587	3
3	12058	63.733663074587	1
3	12124	64.351136074587	3
3	12135	64.351904074587	1
3	12274	65.587618074587	3
3	12285	65.588386074587	1
3	12399	65.604371866647	3
3	12429	65.606131866647	1
3	12470	66.205859074587	3
3	12481	66.206627074587	1
3	12724	66.895783217556	3
3	12735	66.897543217556	1
3	12794	67.442341074587	3
3	12805	67.443109074587	1
3	12927	68.060582074587	3
3	12938	68.061350074587	1
3	13071	69.297064074587	3
3	13082	69.297832074587	1
3	13152	69.915305074587	3
3	13163	69.916073074587	1
3	13296	71.151787074587	3
3	13307	71.152555074587	1
3	13373	71.770028074587	3
3	13384	71.770796074587	1
3	13517	73.006510074587	3
3	13528	73.007278074587	1
3	13594	73.624751074587	3
3	13605	73.625519074587	1
3	13738	74.861233074587	3
3	13749	74.862001074587	1
3	13819	75.479474074587	3
3	13830	75.480242074587	1
3	13965	76.715956074587	3
3	13976	76.716724074587	1
3	14046	77.334197074587	3
3	14057	77.334965074587	1
3	14190	78.570679074587	3
3	14201	78.571447074587	1
3	14269	79.188920074587	3
3	14280	79.189688074587	1
3	14417	80.425402074587	3
3	14428	80.426170074587	1
3	14659	81.043643074587	3
3	14670	81.044411074587	1
3	14911	81.786468945094	3
3	14922	81.788228945094	1
3	14977	82.086389715839	3
3	14988	82.086869715839	1
3	15047	82.100222178996	3
3	15077	82.100702178996	1
3	15111	82.280125074587	3
3	15122	82.280893074587	1
3	15188	82.898366074587	3
3	15199	82.899134074587	1
3	15332	84.134848074587	3
3	15343	84.135616074587	1
3	15409	84.753089074587	3
3	15420	84.753857074587	1
3	15534	84.769338845458	3
3	15564	84.771098845458	1
3	15670	85.989571074587	3
3	15681	85.990339074587	1
3	15747	86.607812074587	3
3	15758	86.608580074587	1
3	15893	87.844294074587	3
3	15904	87.845062074587	1
3	15970	88.462535074587	3
3	15981	88.463303074587	1
3	16114	89.699017074587	3
3	16125	89.699785074587	1
3	16191	90.317258074587	3
3	16202	90.318026074587	1
3	16337	91.553740074587	3
3	16348	91.554508074587	1
3	16414	92.171981074587	3
3	16425	92.172749074587	1
3	16558	93.408463074587	3
3	16569	93.409231074587	1
3	16635	94.026704074587	3
3	16646	94.027472074587	1
3	16781	95.263186074587	3
3	16792	95.263954074587	1
3	16916	95.881427074587	3
3	16927	95.882195074587	1
3	16995	95.899291243588	3
3	17025	95.901051243588	1
4	3839	20.560068757489	3
4	3856	20.560484757489	1
4	4031	20.607322858747	3
4	4051	20.609082858747	1
4	4097	20.661770173966	3
4	4114	20.662186173966	1
4	4161	20.673521092673	3
4	4178	20.675281092673	1
4	4227	20.698286993291	3
4	4244	20.700046993291	1
4	4295	20.751985419446	3
4	4315	20.753745419446	1
4	4362	20.780166363565	3
4	4382	20.780582363565	1
4	4425	20.792228870073	3
4	4442	20.792644870073	1
4	4492	20.802879682702	3
4	4525	20.803295682702	2
4	4557	20.803638499226	1
4	4583	20.907299817098	3
4	4594	20.909059817098	1
4	4649	20.933813430774	3
4	4666	20.935573430774	1
4	4711	20.963834133257	3
4	4722	20.965594133257	1
4	4777	20.992288301446	3
4	4788	20.992704301446	1
4	4842	21.002039164745	3
4	4859	21.002455164745	1
4	4909	21.012601004173	3
4	4926	21.013017004173	1
4	4972	21.026490531858	3
4	4983	21.026906531858	1
4	5045	21.074266137532	3
4	5062	21.075034137532	1
4	5122	21.692507137532	3
4	5139	21.693275137532	1
4	5196	21.920201883201	3
4	5213	21.920681883201	1
4	5260	21.931987524633	3
4	5271	21.932467524633	1
4	5382	22.021395088622	3
4	5399	22.021875088622	1
4	5695	22.378352721977	3
4	5712	22.380112721977	1
4	5765	22.928989137532	3
4	5782	22.929757137532	1
4	5837	23.087995060771	3
4	5854	23.088475060771	1
4	5902	23.099494891984	3
4	5922	23.099974891984	1
4	5971	23.547230137532	3
4	5988	23.547998137532	1
4	6117	24.783712137532	3
4	6134	24.784480137532	1
4	6194	25.401953137532	3
4	6211	25.402721137532	1
4	6338	26.638435137532	3
4	6355	26.639203137532	1
4	6417	27.256676137532	3
4	6434	27.257444137532	1
4	6563	28.493158137532	3
4	6580	28.493926137532	1
4	6640	29.111399137532	3
4	6657	29.112167137532	1
4	6784	30.347881137532	3
4	6801	30.348649137532	1
4	6861	30.966122137532	3
4	6878	30.966890137532	1
4	7005	32.202604137532	3
4	7022	32.203372137532	1
4	7082	32.820845137532	3
4	7099	32.821613137532	1
4	7226	34.057327137532	3
4	7243	34.058095137532	1
4	7305	34.675568137532	3
4	7322	34.676336137532	1
4	7507	35.790099829839	3
4	7524	35.790515829839	1
4	7577	35.912050137532	3
4	7594	35.912818137532	1
4	7649	35.929037864758	3
4	7669	35.929453864758	1
4	7713	35.938842241742	3
4	7743	35.939258241742	2
4	7781	35.93952801688	1
4	7814	36.530291137532	3
4	7831	36.531059137532	1
4	7885	36.547822800192	3
4	7902	36.548238800192	1
4	8130	37.22852899967	3
4	8147	37.23028899967	1
4	8200	37.766773137532	3
4	8217	37.767541137532	1
4	8277	38.385014137532	3
4	8294	38.385782137532	1
4	8477	39.621496137532	3
4	8494	39.622264137532	1
4	8556	40.239737137532	3
4	8573	40.240505137532	1
4	8702	41.476219137532	3
4	8719	41.476987137532	1
4	8779	42.094460137532	3
4	8796	42.095228137532	1
4	8923	43.330942137532	3
4	8940	43.331710137532	1
4	9002	43.949183137532	3
4	9019	43.949951137532	1
4	9148	45.185665137532	3
4	9165	45.186433137532	1
4	9225	45.803906137532	3
4	9242	45.804674137532	1
4	9369	47.040388137532	3
4	9386	47.041156137532	1
4	9446	47.658629137532	3
4	9463	47.659397137532	1
4	9590	48.895111137532	3
4	9607	48.895879137532	1
4	9667	48.908886438632	3
4	9694	48.910646438632	1
4	9735	49.513352137532	3
4	9752	49.514120137532	1
4	9937	50.749834137532	3
4	9954	50.750602137532	1
4	10009	50.790433208951	3
4	10026	50.790849208951	1
4	10074	50.802326050465	3
4	10094	50.802742050465	1
4	10138	50.939148201944	3
4	10155	50.939564201944	1
4	10202	50.949384872228	3
4	10223	50.949800872228	1
4	10272	51.368075137532	3
4	10289	51.368843137532	1
4	10470	52.029036845081	3
4	10487	52.030796845081	1
4	10594	52.604557137532	3
4	10611	52.605325137532	1
4	10727	53.222798137532	3
4	10744	53.223566137532	1
4	10871	54.459280137532	3
4	10888	54.460048137532	1
4	10948	55.077521137532	3
4	10965	55.078289137532	1
4	11092	56.314003137532	3
4	11109	56.314771137532	1
4	11171	56.932244137532	3
4	11188	56.933012137532	1
4	11248	56.947801759072	3
4	11275	56.949561759072	1
4	11383	58.168726137532	3
4	11400	58.169494137532	1
4	11460	58.786967137532	3
4	11477	58.787735137532	1
4	11604	60.023449137532	3
4	11621	60.024217137532	1
4	11683	60.641690137532	3
4	11700	60.642458137532	1
4	11827	61.878172137532	3
4	11844	61.878940137532	1
4	11904	62.496413137532	3
4	11921	62.497181137532	1
4	12048	63.732895137532	3
4	12065	63.733663137532	1
4	12125	64.351136137532	3
4	12142	64.351904137532	1
4	12275	65.587618137532	3
4	12292	65.588386137532	1
4	12398	65.60437181076	3
4	12425	65.60613181076	1
4	12471	66.205859137532	3
4	12488	66.206627137532	1
4	12725	66.895783280501	3
4	12742	66.897543280501	1
4	12795	67.442341137532	3
4	12812	67.443109137532	1
4	12928	68.060582137532	3
4	12945	68.061350137532	1
4	13072	69.297064137532	3
4	13089	69.297832137532	1
4	13153	69.915305137532	3
4	13170	69.916073137532	1
4	13297	71.151787137532	3
4	13314	71.152555137532	1
4	13374	71.770028137532	3
4	13391	71.770796137532	1
4	13518	73.006510137532	3
4	13535	73.007278137532	1
4	13595	73.624751137532	3
4	13612	73.625519137532	1
4	13739	74.861233137532	3
4	13756	74.862001137532	1
4	13820	75.479474137532	3
4	13837	75.480242137532	1
4	13966	76.715956137532	3
4	13983	76.716724137532	1
4	14047	77.334197137532	3
4	14064	77.334965137532	1
4	14191	78.570679137532	3
4	14208	78.571447137532	1
4	14270	79.188920137532	3
4	14287	79.189688137532	1
4	14418	80.425402137532	3
4	14435	80.426170137532	1
4	14660	81.043643137532	3
4	14677	81.044411137532	1
4	14912	81.786469008039	3
4	14929	81.788229008039	1
4	14978	82.086389778784	3
4	14995	82.086869778784	1
4	15040	82.100222096535	3
4	15051	82.100702096535	1
4	15112	82.280125137532	3
4	15129	82.280893137532	1
4	15189	82.898366137532	3
4	15206	82.899134137532	1
4	15333	84.134848137532	3
4	15350	84.135616137532	1
4	15410	84.753089137532	3
4	15427	84.753857137532	1
4	15533	84.769338789571	3
4	15560	84.771098789571	1
4	15671	85.989571137532	3
4	15688	85.990339137532	1
4	15748	86.607812137532	3
4	15765	86.608580137532	1
4	15894	87.844294137532	3
4	15911	87.845062137532	1
4	15971	88.462535137532	3
4	15988	88.463303137532	1
4	16115	89.699017137532	3
4	16132	89.699785137532	1
4	16192	90.317258137532	3
4	16209	90.318026137532	1
4	16338	91.553740137532	3
4	16355	91.554508137532	1
4	16415	92.171981137532	3
4	16432	92.172749137532	1
4	16559	93.408463137532	3
4	16576	93.409231137532	1
4	16636	94.026704137532	3
4	16653	94.027472137532	1
4	16782	95.263186137532	3
4	16799	95.263954137532	1
4	16917	95.881427137532	3
4	16934	95.882195137532	1
4	16994	95.899291187701	3
4	17021	95.901051187701	1
5	3774	20.54721007499	3
5	3785	20.54762607499	1
5	3840	20.560068757489	3
5	3857	20.560484757489	1
5	3905	20.570143815552	3
5	3917	20.570559815552	1
5	4029	20.607322831114	3
5	4040	20.609082831114	1
5	4098	20.661770173966	3
5	4115	20.662186173966	1
5	4162	20.673521092673	3
5	4179	20.675281092673	1
5	4228	20.698286993291	3
5	4245	20.700046993291	1
5	4293	20.751985391813	3
5	4304	20.753745391813	1
5	4360	20.780166335932	3
5	4371	20.780582335932	1
5	4426	20.792228870073	3
5	4443	20.792644870073	1
5	4490	20.802879655069	3
5	4514	20.803295655069	2
5	4558	20.803638499226	1
5	4650	20.933813430774	3
5	4667	20.935573430774	1
5	4843	21.002039164745	3
5	4860	21.002455164745	1
5	4910	21.012601004173	3
5	4927	21.013017004173	1
5	5046	21.074266137532	3
5	5063	21.075034137532	1
5	5123	21.692507137532	3
5	5140	21.693275137532	1
5	5197	21.920201883201	3
5	5214	21.920681883201	1
5	5383	22.021395088622	3
5	5400	22.021875088622	1
5	5446	22.03351723025	3
5	5457	22.03399723025	1
5	5696	22.378352721977	3
5	5713	22.380112721977	1
5	5766	22.928989137532	3
5	5783	22.929757137532	1
5	5838	23.087995060771	3
5	5855	23.088475060771	1
5	5900	23.099494864351	3
5	5911	23.099974864351	1
5	5972	23.547230137532	3
5	5989	23.547998137532	1
5	6118	24.783712137532	3
5	6135	24.784480137532	1
5	6195	25.401953137532	3
5	6212	25.402721137532	1
5	6339	26.638435137532	3
5	6356	26.639203137532	1
5	6418	27.256676137532	3
5	6435	27.257444137532	1
5	6564	28.493158137532	3
5	6581	28.493926137532	1
5	6641	29.111399137532	3
5	6658	29.112167137532	1
5	6785	30.347881137532	3
5	6802	30.348649137532	1
5	6862	30.966122137532	3
5	6879	30.966890137532	1
5	7006	32.202604137532	3
5	7023	32.203372137532	1
5	7083	32.820845137532	3
5	7100	32.821613137532	1
5	7227	34.057327137532	3
5	7244	34.058095137532	1
5	7306	34.675568137532	3
5	7323	34.676336137532	1
5	7508	35.790099829839	3
5	7525	35.790515829839	1
5	7578	35.912050137532	3
5	7595	35.912818137532	1
5	7647	35.929037837125	3
5	7658	35.929453837125	1
5	7714	35.938842241742	3
5	7744	35.939258241742	2
5	7776	35.939527989247	1
5	7815	36.530291137532	3
5	7832	36.531059137532	1
5	7886	36.547822800192	3
5	7903	36.548238800192	1
5	8131	37.22852899967	3
5	8148	37.23028899967	1
5	8201	37.766773137532	3
5	8218	37.767541137532	1
5	8278	38.385014137532	3
5	8295	38.385782137532	1
5	8478	39.621496137532	3
5	8495	39.622264137532	1
5	8557	40.239737137532	3
5	8574	40.240505137532	1
5	8703	41.476219137532	3
5	8720	41.476987137532	1
5	8780	42.094460137532	3
5	8797	42.095228137532	1
5	8924	43.330942137532	3
5	8941	43.331710137532	1
5	9003	43.949183137532	3
5	9020	43.949951137532	1
5	9149	45.185665137532	3
5	9166	45.186433137532	1
5	9226	45.803906137532	3
5	9243	45.804674137532	1
5	9370	47.040388137532	3
5	9387	47.041156137532	1
5	9447	47.658629137532	3
5	9464	47.659397137532	1
5	9591	48.895111137532	3
5	9608	48.895879137532	1
5	9666	48.908886427806	3
5	9690	48.910646427806	1
5	9736	49.513352137532	3
5	9753	49.514120137532	1
5	9938	50.749834137532	3
5	9955	50.750602137532	1
5	10010	50.790433208951	3
5	10027	50.790849208951	1
5	10072	50.802326022832	3
5	10083	50.802742022832	1
5	10139	50.939148201944	3
5	10156	50.939564201944	1
5	10200	50.949384844595	3
5	10212	50.949800844595	1
5	10273	51.368075137532	3
5	10290	51.368843137532	1
5	10471	52.029036845081	3
5	10488	52.030796845081	1
5	10595	52.604557137532	3
5	10612	52.605325137532	1
5	10728	53.222798137532	3
5	10745	53.223566137532	1
5	10872	54.459280137532	3
5	10889	54.460048137532	1
5	10949	55.077521137532	3
5	10966	55.078289137532	1
5	11093	56.314003137532	3
5	11110	56.314771137532	1
5	11172	56.932244137532	3
5	11189	56.933012137532	1
5	11247	56.947801748246	3
5	11271	56.949561748246	1
5	11384	58.168726137532	3
5	11401	58.169494137532	1
5	11461	58.786967137532	3
5	11478	58.787735137532	1
5	11605	60.023449137532	3
5	11622	60.024217137532	1
5	11684	60.641690137532	3
5	11701	60.642458137532	1
5	11828	61.878172137532	3
5	11845	61.878940137532	1
5	11905	62.496413137532	3
5	11922	62.497181137532	1
5	12049	63.732895137532	3
5	12066	63.733663137532	1
5	12126	64.351136137532	3
5	12143	64.351904137532	1
5	12276	65.587618137532	3
5	12293	65.588386137532	1
5	12397	65.604371799934	3
5	12421	65.606131799934	1
5	12472	66.205859137532	3
5	12489	66.206627137532	1
5	12726	66.895783280501	3
5	12743	66.897543280501	1
5	12796	67.442341137532	3
5	12813	67.443109137532	1
5	12929	68.060582137532	3
5	12946	68.061350137532	1
5	13073	69.297064137532	3
5	13090	69.297832137532	1
5	13154	69.915305137532	3
5	13171	69.916073137532	1
5	13298	71.151787137532	3
5	13315	71.152555137532	1
5	13375	71.770028137532	3
5	13392	71.770796137532	1
5	13519	73.006510137532	3
5	13536	73.007278137532	1
5	13596	73.624751137532	3
5	13613	73.625519137532	1
5	13740	74.861233137532	3
5	13757	74.862001137532	1
5	13821	75.479474137532	3
5	13838	75.480242137532	1
5	13967	76.715956137532	3
5	13984	76.716724137532	1
5	14048	77.334197137532	3
5	14065	77.334965137532	1
5	14192	78.570679137532	3
5	14209	78.571447137532	1
5	14271	79.188920137532	3
5	14288	79.189688137532	1
5	14419	80.425402137532	3
5	14436	80.426170137532	1
5	14661	81.043643137532	3
5	14678	81.044411137532	1
5	14913	81.786469008039	3
5	14930	81.788229008039	1
5	14979	82.086389778784	3
5	14996	82.086869778784	1
5	15043	82.100222124168	3
5	15061	82.100702124168	1
5	15113	82.280125137532	3
5	15130	82.280893137532	1
5	15190	82.898366137532	3
5	15207	82.899134137532	1
5	15334	84.134848137532	3
5	15351	84.135616137532	1
5	15411	84.753089137532	3
5	15428	84.753857137532	1
5	15532	84.769338778745	3
5	15556	84.771098778745	1
5	15672	85.989571137532	3
5	15689	85.990339137532	1
5	15749	86.607812137532	3
5	15766	86.608580137532	1
5	15895	87.844294137532	3
5	15912	87.845062137532	1
5	15972	88.462535137532	3
5	15989	88.463303137532	1
5	16116	89.699017137532	3
5	16133	89.699785137532	1
5	16193	90.317258137532	3
5	16210	90.318026137532	1
5	16339	91.553740137532	3
5	16356	91.554508137532	1
5	16416	92.171981137532	3
5	16433	92.172749137532	1
5	16560	93.408463137532	3
5	16577	93.409231137532	1
5	16637	94.026704137532	3
5	16654	94.027472137532	1
5	16783	95.263186137532	3
5	16800	95.263954137532	1
5	16918	95.881427137532	3
5	16935	95.882195137532	1
5	16993	95.899291176875	3
5	17017	95.901051176875	1
6	3773	20.54721007499	3
6	3784	20.54762607499	1
6	3841	20.560068822856	3
6	3864	20.560484822856	1
6	3904	20.570143815552	3
6	3916	20.570559815552	1
6	4033	20.607322913575	3
6	4058	20.609082913575	1
6	4099	20.661770239333	3
6	4122	20.662186239333	1
6	4163	20.67352115804	3
6	4186	20.67528115804	1
6	4229	20.698287058658	3
6	4252	20.700047058658	1
6	4297	20.751985474274	3
6	4322	20.753745474274	1
6	4364	20.780166418393	3
6	4389	20.780582418393	1
6	4427	20.79222893544	3
6	4450	20.79264493544	1
6	4494	20.80287973753	3
6	4532	20.80329573753	2
6	4559	20.803638564593	1
6	4587	20.907299844731	3
6	4606	20.909059844731	1
6	4651	20.933813496141	3
6	4674	20.935573496141	1
6	4715	20.96383416089	3
6	4734	20.96559416089	1
6	4781	20.992288329079	3
6	4800	20.992704329079	1
6	4844	21.002039230112	3
6	4867	21.002455230112	1
6	4911	21.01260106954	3
6	4934	21.01301706954	1
6	4976	21.026490559491	3
6	4995	21.026906559491	1
6	5047	21.074266202899	3
6	5070	21.075034202899	1
6	5124	21.692507202899	3
6	5147	21.693275202899	1
6	5198	21.920201948568	3
6	5221	21.920681948568	1
6	5264	21.931987552266	3
6	5283	21.932467552266	1
6	5384	22.021395153989	3
6	5407	22.021875153989	1
6	5445	22.03351723025	3
6	5456	22.03399723025	1
6	5697	22.378352787344	3
6	5720	22.380112787344	1
6	5767	22.928989202899	3
6	5790	22.929757202899	1
6	5839	23.087995126138	3
6	5862	23.088475126138	1
6	5904	23.099494946812	3
6	5929	23.099974946812	1
6	5973	23.547230202899	3
6	5996	23.547998202899	1
6	6119	24.783712202899	3
6	6142	24.784480202899	1
6	6196	25.401953202899	3
6	6219	25.402721202899	1
6	6340	26.638435202899	3
6	6363	26.639203202899	1
6	6419	27.256676202899	3
6	6442	27.257444202899	1
6	6565	28.493158202899	3
6	6588	28.493926202899	1
6	6642	29.111399202899	3
6	6665	29.112167202899	1
6	6786	30.347881202899	3
6	6809	30.348649202899	1
6	6863	30.966122202899	3
6	6886	30.966890202899	1
6	7007	32.202604202899	3
6	7030	32.203372202899	1
6	7084	32.820845202899	3
6	7107	32.821613202899	1
6	7228	34.057327202899	3
6	7251	34.058095202899	1
6	7307	34.675568202899	3
6	7330	34.676336202899	1
6	7509	35.790099895206	3
6	7532	35.790515895206	1
6	7579	35.912050202899	3
6	7602	35.912818202899	1
6	7651	35.929037919586	3
6	7676	35.929453919586	1
6	7715	35.938842307109	3
6	7751	35.939258307109	2
6	7783	35.939528071708	1
6	7816	36.530291202899	3
6	7839	36.531059202899	1
6	7887	36.547822865559	3
6	7910	36.548238865559	1
6	8132	37.228529065037	3
6	8155	37.230289065037	1
6	8202	37.766773202899	3
6	8225	37.767541202899	1
6	8279	38.385014202899	3
6	8302	38.385782202899	1
6	8479	39.621496202899	3
6	8502	39.622264202899	1
6	8558	40.239737202899	3
6	8581	40.240505202899	1
6	8704	41.476219202899	3
6	8727	41.476987202899	1
6	8781	42.094460202899	3
6	8804	42.095228202899	1
6	8925	43.330942202899	3
6	8948	43.331710202899	1
6	9004	43.949183202899	3
6	9027	43.949951202899	1
6	9150	45.185665202899	3
6	9173	45.186433202899	1
6	9227	45.803906202899	3
6	9250	45.804674202899	1
6	9371	47.040388202899	3
6	9394	47.041156202899	1
6	9448	47.658629202899	3
6	9471	47.659397202899	1
6	9592	48.895111202899	3
6	9615	48.895879202899	1
6	9665	48.908886376842	3
6	9686	48.910646376842	1
6	9737	49.513352202899	3
6	9760	49.514120202899	1
6	9939	50.749834202899	3
6	9962	50.750602202899	1
6	10011	50.790433274318	3
6	10034	50.790849274318	1
6	10076	50.802326105293	3
6	10101	50.802742105293	1
6	10140	50.939148267311	3
6	10163	50.939564267311	1
6	10204	50.949384927056	3
6	10230	50.949800927056	1
6	10274	51.368075202899	3
6	10297	51.368843202899	1
6	10472	52.029036910448	3
6	10495	52.030796910448	1
6	10596	52.604557202899	3
6	10619	52.605325202899	1
6	10729	53.222798202899	3
6	10752	53.223566202899	1
6	10873	54.459280202899	3
6	10896	54.460048202899	1
6	10950	55.077521202899	3
6	10973	55.078289202899	1
6	11094	56.314003202899	3
6	11117	56.314771202899	1
6	11173	56.932244202899	3
6	11196	56.933012202899	1
6	11246	56.947801697282	3
6	11267	56.949561697282	1
6	11385	58.168726202899	3
6	11408	58.169494202899	1
6	11462	58.786967202899	3
6	11485	58.787735202899	1
6	11606	60.023449202899	3
6	11629	60.024217202899	1
6	11685	60.641690202899	3
6	11708	60.642458202899	1
6	11829	61.878172202899	3
6	11852	61.878940202899	1
6	11906	62.496413202899	3
6	11929	62.497181202899	1
6	12050	63.732895202899	3
6	12073	63.733663202899	1
6	12127	64.351136202899	3
6	12150	64.351904202899	1
6	12277	65.587618202899	3
6	12300	65.588386202899	1
6	12396	65.60437174897	3
6	12417	65.60613174897	1
6	12473	66.205859202899	3
6	12496	66.206627202899	1
6	12727	66.895783345868	3
6	12750	66.897543345868	1
6	12797	67.442341202899	3
6	12820	67.443109202899	1
6	12930	68.060582202899	3
6	12953	68.061350202899	1
6	13074	69.297064202899	3
6	13097	69.297832202899	1
6	13155	69.915305202899	3
6	13178	69.916073202899	1
6	13299	71.151787202899	3
6	13322	71.152555202899	1
6	13376	71.770028202899	3
6	13399	71.770796202899	1
6	13520	73.006510202899	3
6	13543	73.007278202899	1
6	13597	73.624751202899	3
6	13620	73.625519202899	1
6	13741	74.861233202899	3
6	13764	74.862001202899	1
6	13822	75.479474202899	3
6	13845	75.480242202899	1
6	13968	76.715956202899	3
6	13991	76.716724202899	1
6	14049	77.334197202899	3
6	14072	77.334965202899	1
6	14193	78.570679202899	3
6	14216	78.571447202899	1
6	14272	79.188920202899	3
6	14295	79.189688202899	1
6	14420	80.425402202899	3
6	14443	80.426170202899	1
6	14662	81.043643202899	3
6	14685	81.044411202899	1
6	14914	81.786469073406	3
6	14937	81.788229073406	1
6	14980	82.086389844151	3
6	15003	82.086869844151	1
6	15114	82.280125202899	3
6	15137	82.280893202899	1
6	15191	82.898366202899	3
6	15214	82.899134202899	1
6	15335	84.134848202899	3
6	15358	84.135616202899	1
6	15412	84.753089202899	3
6	15435	84.753857202899	1
6	15531	84.769338727781	3
6	15552	84.771098727781	1
6	15673	85.989571202899	3
6	15696	85.990339202899	1
6	15750	86.607812202899	3
6	15773	86.608580202899	1
6	15896	87.844294202899	3
6	15919	87.845062202899	1
6	15973	88.462535202899	3
6	15996	88.463303202899	1
6	16117	89.699017202899	3
6	16140	89.699785202899	1
6	16194	90.317258202899	3
6	16217	90.318026202899	1
6	16340	91.553740202899	3
6	16363	91.554508202899	1
6	16417	92.171981202899	3
6	16440	92.172749202899	1
6	16561	93.408463202899	3
6	16584	93.409231202899	1
6	16638	94.026704202899	3
6	16661	94.027472202899	1
6	16784	95.263186202899	3
6	16807	95.263954202899	1
6	16919	95.881427202899	3
6	16942	95.882195202899	1
6	16992	95.899291125911	3
6	17013	95.901051125911	1
7	3776	20.547210102623	3
7	3796	20.547626102623	1
7	3842	20.560068822856	3
7	3865	20.560484822856	1
7	3907	20.570143843185	3
7	3928	20.570559843185	1
7	4032	20.607322897827	3
7	4055	20.609082897827	1
7	4100	20.661770239333	3
7	4123	20.662186239333	1
7	4164	20.67352115804	3
7	4187	20.67528115804	1
7	4230	20.698287058658	3
7	4253	20.700047058658	1
7	4296	20.751985458526	3
7	4319	20.753745458526	1
7	4363	20.780166402645	3
7	4386	20.780582402645	1
7	4428	20.79222893544	3
7	4451	20.79264493544	1
7	4493	20.802879721782	3
7	4529	20.803295721782	2
7	4560	20.803638564593	1
7	4585	20.907299817098	3
7	4596	20.909059817098	1
7	4652	20.933813496141	3
7	4675	20.935573496141	1
7	4713	20.963834133257	3
7	4724	20.965594133257	1
7	4779	20.992288301446	3
7	4790	20.992704301446	1
7	4845	21.002039230112	3
7	4868	21.002455230112	1
7	4912	21.01260106954	3
7	4935	21.01301706954	1
7	4974	21.026490531858	3
7	4985	21.026906531858	1
7	5048	21.074266202899	3
7	5071	21.075034202899	1
7	5125	21.692507202899	3
7	5148	21.693275202899	1
7	5199	21.920201948568	3
7	5222	21.920681948568	1
7	5262	21.931987524633	3
7	5273	21.932467524633	1
7	5385	22.021395153989	3
7	5408	22.021875153989	1
7	5448	22.033517257883	3
7	5468	22.033997257883	1
7	5698	22.378352787344	3
7	5721	22.380112787344	1
7	5768	22.928989202899	3
7	5791	22.929757202899	1
7	5840	23.087995126138	3
7	5863	23.088475126138	1
7	5903	23.099494931064	3
7	5926	23.099974931064	1
7	5974	23.547230202899	3
7	5997	23.547998202899	1
7	6120	24.783712202899	3
7	6143	24.784480202899	1
7	6197	25.401953202899	3
7	6220	25.402721202899	1
7	6341	26.638435202899	3
7	6364	26.639203202899	1
7	6420	27.256676202899	3
7	6443	27.257444202899	1
7	6566	28.493158202899	3
7	6589	28.493926202899	1
7	6643	29.111399202899	3
7	6666	29.112167202899	1
7	6787	30.347881202899	3
7	6810	30.348649202899	1
7	6864	30.966122202899	3
7	6887	30.966890202899	1
7	7008	32.202604202899	3
7	7031	32.203372202899	1
7	7085	32.820845202899	3
7	7108	32.821613202899	1
7	7229	34.057327202899	3
7	7252	34.058095202899	1
7	7308	34.675568202899	3
7	7331	34.676336202899	1
7	7510	35.790099895206	3
7	7533	35.790515895206	1
7	7580	35.912050202899	3
7	7603	35.912818202899	1
7	7650	35.929037903838	3
7	7673	35.929453903838	1
7	7716	35.938842307109	3
7	7752	35.939258307109	2
7	7782	35.93952805596	1
7	7817	36.530291202899	3
7	7840	36.531059202899	1
7	7888	36.547822865559	3
7	7911	36.548238865559	1
7	8133	37.228529065037	3
7	8156	37.230289065037	1
7	8203	37.766773202899	3
7	8226	37.767541202899	1
7	8280	38.385014202899	3
7	8303	38.385782202899	1
7	8480	39.621496202899	3
7	8503	39.622264202899	1
7	8559	40.239737202899	3
7	8582	40.240505202899	1
7	8705	41.476219202899	3
7	8728	41.476987202899	1
7	8782	42.094460202899	3
7	8805	42.095228202899	1
7	8926	43.330942202899	3
7	8949	43.331710202899	1
7	9005	43.949183202899	3
7	9028	43.949951202899	1
7	9151	45.185665202899	3
7	9174	45.186433202899	1
7	9228	45.803906202899	3
7	9251	45.804674202899	1
7	9372	47.040388202899	3
7	9395	47.041156202899	1
7	9449	47.658629202899	3
[...]
58	85044	454.561578453988	80
58	86365	460.896090603885	81
59	17431	96.533790357049	17
59	17815	97.166851535465	18
59	19428	110.13598109735	19
59	19639	111.369265516933	20
59	20177	113.844643654832	21
59	21709	125.589186504237	22
59	22377	128.117860607788	23
59	22733	130.536913527075	24
59	23976	140.430439821568	25
59	24394	142.90010415952	26
59	24868	145.375025879055	27
59	26282	155.268858036719	28
59	26948	157.788752377954	29
59	27379	160.829778071255	30
59	28864	170.7197172469	31
59	29345	172.575491630869	32
59	30904	181.232837954108	33
59	31473	185.557612498702	34
59	31951	187.440201946584	35
59	32437	189.888681992397	36
59	33743	200.399486400755	37
59	34028	202.251897476718	38
59	34633	204.724080354614	39
59	40407	245.213903216832	40
59	41273	249.54235865206	41
59	45006	275.538775547594	42
59	45348	277.554132705072	43
59	46068	279.654758424102	44
59	50697	305.70270239953	45
59	51042	308.474391619425	46
59	51822	310.486972639407	47
59	56699	336.676107836608	48
59	56974	338.63938698264	49
59	58033	340.942979678814	50
59	62560	366.954348758748	51
59	62903	369.400495339168	52
59	63483	371.115965352929	53
59	69880	394.602035837805	54
59	71133	400.11931680863	55
59	73949	409.574441684161	56
59	77505	424.20818445664	57
59	77562	424.232809714135	58
59	79142	430.848014708825	59
59	81485	439.666515916912	60
59	81536	439.691438755692	61
59	84992	454.503294990315	62
59	85043	454.561578253988	63
59	86366	460.896090803885	64
60	17432	96.533790457049	13
60	17816	97.166851635465	14
60	19640	111.369265616933	15
60	20178	113.844643754832	16
60	22378	128.117860707788	17
60	22734	130.536913627075	18
60	24395	142.90010425952	19
60	24869	145.375025979055	20
60	26949	157.788752477954	21
60	27380	160.829778171255	22
60	29346	172.575491730869	23
60	30905	181.232838054108	24
60	31952	187.440202046584	25
60	32438	189.888682092397	26
60	34029	202.251897576718	27
60	34634	204.724080454614	28
60	40792	247.068626716832	29
60	41274	249.54235875206	30
60	45349	277.554132805072	31
60	46069	279.654758524102	32
60	51043	308.474391719425	33
60	51823	310.486972739407	34
60	56975	338.63938708264	35
60	58034	340.942979778814	36
60	62904	369.400495439168	37
60	63484	371.115965452929	38
60	65583	379.104514560432	39
60	69881	394.602035937805	40
60	71134	400.11931690863	41
60	73950	409.574441784161	42
60	77563	424.232809814135	43
60	79143	430.848014808825	44
60	81486	439.666516016912	45
60	84993	454.503295090315	46
60	86367	460.896090903885	47
61	17433	96.533790557049	12
61	17817	97.166851735465	13
61	19641	111.369265716933	14
61	20179	113.844643854832	15
61	22379	128.117860807788	16
61	22735	130.536913727075	17
61	24396	142.90010435952	18
61	24870	145.375026079055	19
61	26950	157.788752577954	20
61	27381	160.829778271255	21
61	29347	172.575491830869	22
61	30906	181.232838154108	23
61	31953	187.440202146584	24
61	32439	189.888682192397	25
61	34030	202.251897676718	26
61	34635	204.724080554614	27
61	41275	249.54235885206	28
61	45350	277.554132905072	29
61	46070	279.654758624102	30
61	51044	308.474391819425	31
61	51824	310.486972839407	32
61	56976	338.63938718264	33
61	58035	340.942979878814	34
61	62905	369.400495539168	35
61	63485	371.115965552929	36
61	69882	394.602036037805	37
61	71135	400.11931700863	38
61	73951	409.574441884161	39
61	77564	424.232809914135	40
61	79144	430.848014908825	41
61	81487	439.666516116912	42
61	84994	454.503295190315	43
61	86368	460.896091003885	44
62	17691	97.125406307196	6
62	17893	97.743647307196	6
62	18339	101.453093307196	6
62	19004	107.017262307196	6
62	19227	108.871985307196	6
62	19511	110.726708307196	6
62	20121	113.817913307196	6
62	20254	114.436154307196	6
62	20543	116.290877307196	6
62	21131	121.236805307196	6
62	22064	127.419215307196	6
62	22453	128.655697307196	6
62	22677	130.510420307196	6
62	22810	131.128661307196	6
62	23035	132.983384307196	6
62	23844	139.784035307196	6
62	24588	143.493481307196	6
62	24812	145.348204307196	6
62	25166	147.821168307196	6
62	25599	150.912373307196	6
62	26559	156.476542307196	6
62	27323	160.804229307196	6
62	28407	169.459603307196	6
62	29008	171.314326307196	6
62	30848	181.206182307196	6
62	31048	182.442664307196	6
62	31552	186.152110307196	6
62	31764	186.770351307196	6
62	32168	188.625074307196	6
62	32381	189.861556307196	6
62	32514	190.479797307196	6
62	33102	195.425725307196	6
62	34223	202.844617307196	6
62	34577	204.699340307196	6
62	34854	206.554063307196	6
62	35742	213.972955307196	6
62	36048	216.445919307196	6
62	36550	219.537124307196	6
62	36629	220.155365307196	6
62	37283	225.101293307196	6
62	37362	225.719534307196	6
62	37585	227.574257307196	6
62	38478	232.520185307196	6
62	38989	236.229631307196	6
62	39068	236.847872307196	6
62	39216	238.084354307196	6
62	39295	238.702595307196	6
62	39518	240.557318307196	6
62	39743	242.412041307196	6
62	40932	247.357969307196	6
62	41220	249.212692307196	6
62	41779	252.922138307196	6
62	42301	257.249825307196	6
62	42891	262.195753307196	6
62	43393	262.813994307196	6
62	43681	264.668717307196	6
62	43829	265.905199307196	6
62	43910	266.523440307196	6
62	44361	270.232886307196	6
62	44509	271.469368307196	6
62	44955	275.178814307196	6
62	46015	279.506501307196	6
62	46498	282.597706307196	6
62	46802	285.070670307196	6
62	47025	286.925393307196	6
62	47249	288.780116307196	6
62	47397	290.016598307196	6
62	48302	293.726044307196	6
62	48525	295.580767307196	6
62	48748	297.435490307196	6
62	49053	299.908454307196	6
62	49766	301.144936307196	6
62	50843	306.709105307196	6
62	51501	309.182069307196	6
62	52042	312.273274307196	6
62	52121	312.891515307196	6
62	55327	327.729299307196	6
62	56284	334.529950307196	6
62	58176	341.948842307196	6
62	58909	346.276529307196	6
62	59277	349.367734307196	6
62	59356	349.985975307196	6
62	59868	353.077180307196	6
62	60257	353.695421307196	6
62	61563	361.114313307196	6
62	61844	362.350795307196	6
62	61923	362.969036307196	6
62	62510	366.678482307196	6
62	64684	377.188579307196	6
62	64763	377.806820307196	6
62	65351	379.050799291606	6
62	65725	379.669040291606	6
62	65884	380.898025307196	6
62	65935	380.905522291606	6
62	66482	381.523763291606	6
62	66692	382.760245291606	6
62	66835	383.378486291606	6
62	67045	384.614968291606	6
62	67188	385.233209291606	6
62	67541	386.469691291606	6
62	67633	387.080435307196	6
62	67684	387.087932291606	6
62	67894	388.324414291606	6
62	68037	388.942655291606	6
62	68247	390.179137291606	6
62	68390	390.797378291606	6
62	68873	392.033860291606	6
62	69144	392.652101291606	6
62	69483	393.888583291606	6
62	69578	394.499327307196	6
62	69629	394.506824291606	6
62	70081	395.743306291606	6
62	70224	396.361547291606	6
62	70577	397.598029291606	6
62	70720	398.216270291606	6
62	70930	399.452752291606	6
62	71073	400.070993291606	6
62	71605	401.307475291606	6
62	71871	401.925716291606	6
62	72081	403.162198291606	6
62	72224	403.780439291606	6
62	72434	405.016921291606	6
62	72578	405.635162291606	6
62	72913	406.871644291606	6
62	73056	407.489885291606	6
62	73266	408.726367291606	6
62	73361	409.337111307196	6
62	73412	409.344608291606	6
62	74166	411.191834307196	6
62	74217	411.199331291606	6
62	74611	411.817572291606	6
62	74821	413.054054291606	6
62	74964	413.672295291606	6
62	75241	415.527018291606	6
62	75384	416.145259291606	6
62	75846	417.381741291606	6
62	75989	417.999982291606	6
62	76331	419.854705291606	6
62	76666	420.472946291606	6
62	76876	421.709428291606	6
62	77162	422.327669291606	6
62	77441	424.182392291606	6
62	77697	424.800633291606	6
62	78166	426.037115291606	6
62	78258	426.647859307196	6
62	78309	426.655356291606	6
62	78678	428.502582307196	6
62	78729	428.510079291606	6
62	78872	429.128320291606	6
62	79082	430.364802291606	6
62	79340	430.983043291606	6
62	79932	432.837766291606	6
62	80144	433.456007291606	6
62	80354	434.692489291606	6
62	80497	435.310730291606	6
62	80780	437.165453291606	6
62	81012	437.776197307196	6
62	81063	437.783694291606	6
62	81222	439.012679307196	6
62	81273	439.020176291606	6
62	81367	439.630920307196	6
62	81418	439.638417291606	6
62	81872	441.493140291606	6
62	82079	442.111381291606	6
62	82381	443.340366307196	6
62	82432	443.347863291606	6
62	82575	443.966104291606	6
62	82852	445.820827291606	6
62	82995	446.439068291606	6
62	83297	447.668053307196	6
62	83348	447.675550291606	6
62	83491	448.293791291606	6
62	83717	450.141017307196	6
62	83768	450.148514291606	6
62	83911	450.766755291606	6
62	84179	451.995740307196	6
62	84230	452.003237291606	6
62	84645	452.621478291606	6
62	84873	454.468704307196	6
62	84924	454.476201291606	6
62	85180	455.094442291606	6
62	85390	456.330924291606	6
62	85533	456.949165291606	6
62	85953	458.803888291606	6
62	86045	459.414632307196	6
62	86096	459.422129291606	6
62	86306	460.658611291606	6
62	86513	461.269355307196	6
62	86564	461.276852291606	6
62	87106	463.124078307196	6
62	87157	463.131575291606	6
62	87318	463.742319307196	6
62	87369	463.749816291606	6
62	87579	464.986298291606	6
62	87671	465.597042307196	6
62	87722	465.604539291606	6
62	88325	467.459262291606	6
63	20123	113.817913307196	6
63	65352	379.050799291606	6
64	17766	97.148533078441	1
64	20128	113.826325197808	0
64	22684	130.518595070051	0
64	24819	145.356707422031	0
64	27330	160.811459614231	0
64	30855	181.214519497084	0
64	32388	189.870363535373	0
64	34584	204.70576189759	0
64	65484	379.086196003408	2
64	69831	394.583717380781	4
64	73900	409.556123227137	5
64	77513	424.214491257111	2
64	81434	439.648197459888	0
64	84940	454.484976533291	0
65	17766	97.148533078441	90.286312771245
65	20128	113.826325197808	0.008411890612
65	22684	130.518595070051	16.700681762855
65	24819	145.356707422031	31.538794114835
65	27330	160.811459614231	46.993546307035
65	30855	181.214519497084	67.396606189888
65	32388	189.870363535373	76.052450228177
65	34584	204.70576189759	90.887848590394
65	65484	379.086196003408	0.035396711802
65	69831	394.583717380781	15.532918089175
65	73900	409.556123227137	30.505323935531
65	77513	424.214491257111	45.163691965505
65	81434	439.648197459888	60.597398168282
65	84940	454.484976533291	75.434177241685
66	17692	97.125406307196	11
66	17894	97.743647307196	11
66	20255	114.436154307196	11
66	21132	121.236805307196	11
66	22065	127.419215307196	11
66	22811	131.128661307196	11
66	25167	147.821168307196	11
66	31553	186.152110307196	11
66	32169	188.625074307196	11
66	34224	202.844617307196	11
66	34855	206.554063307196	11
66	36049	216.445919307196	11
66	36630	220.155365307196	11
66	38479	232.520185307196	11
66	39069	236.847872307196	11
66	39519	240.557318307196	11
66	39744	242.412041307196	11
66	42302	257.249825307196	11
66	42892	262.195753307196	11
66	43682	264.668717307196	11
66	43830	265.905199307196	11
66	43911	266.523440307196	11
66	44362	270.232886307196	11
66	44510	271.469368307196	11
66	44956	275.178814307196	11
66	46499	282.597706307196	11
66	47250	288.780116307196	11
66	47398	290.016598307196	11
66	58177	341.948842307196	11
66	59357	349.985975307196	11
66	60258	353.695421307196	11
66	61564	361.114313307196	11
66	65353	379.050799302432	11
66	65727	379.669040302432	11
66	65936	380.905522302432	11
66	66484	381.523763302432	11
66	66694	382.760245302432	11
66	66837	383.378486302432	11
66	67047	384.614968302432	11
66	67190	385.233209302432	11
66	67543	386.469691302432	11
66	67685	387.087932302432	11
66	67896	388.324414302432	11
66	68039	388.942655302432	11
66	68249	390.179137302432	11
66	68392	390.797378302432	11
66	68875	392.033860302432	11
66	69146	392.652101302432	11
66	69485	393.888583302432	11
66	69630	394.506824302432	11
66	70083	395.743306302432	11
66	70226	396.361547302432	11
66	70579	397.598029302432	11
66	70722	398.216270302432	11
66	70932	399.452752302432	11
66	71075	400.070993302432	11
66	71607	401.307475302432	11
66	71873	401.925716302432	11
66	72083	403.162198302432	11
66	72226	403.780439302432	11
66	72436	405.016921302432	11
66	72580	405.635162302432	11
66	72915	406.871644302432	11
66	73058	407.489885302432	11
66	73268	408.726367302432	11
66	73413	409.344608302432	11
66	74218	411.199331302432	11
66	74613	411.817572302432	11
66	74823	413.054054302432	11
66	74966	413.672295302432	11
66	75243	415.527018302432	11
66	75386	416.145259302432	11
66	75848	417.381741302432	11
66	75991	417.999982302432	11
66	76333	419.854705302432	11
66	76668	420.472946302432	11
66	76878	421.709428302432	11
66	77164	422.327669302432	11
66	77443	424.182392302432	11
66	77699	424.800633302432	11
66	78168	426.037115302432	11
66	78259	426.647859307196	11
66	78310	426.655356302432	11
66	78679	428.502582307196	11
66	78730	428.510079302432	11
66	78874	429.128320302432	11
66	79084	430.364802302432	11
66	79342	430.983043302432	11
66	79934	432.837766302432	11
66	80146	433.456007302432	11
66	80356	434.692489302432	11
66	80499	435.310730302432	11
66	80782	437.165453302432	11
66	81013	437.776197307196	11
66	81064	437.783694302432	11
66	81274	439.020176302432	11
66	81368	439.630920307196	11
66	81419	439.638417302432	11
66	81874	441.493140302432	11
66	82081	442.111381302432	11
66	82433	443.347863302432	11
66	82577	443.966104302432	11
66	82854	445.820827302432	11
66	82997	446.439068302432	11
66	83349	447.675550302432	11
66	83493	448.293791302432	11
66	83769	450.148514302432	11
66	83913	450.766755302432	11
66	84180	451.995740307196	11
66	84231	452.003237302432	11
66	84647	452.621478302432	11
66	84925	454.476201302432	11
66	85182	455.094442302432	11
66	85392	456.330924302432	11
66	85535	456.949165302432	11
66	85955	458.803888302432	11
66	86097	459.422129302432	11
66	86308	460.658611302432	11
66	86565	461.276852302432	11
66	87158	463.131575302432	11
66	87319	463.742319307196	11
66	87370	463.749816302432	11
66	87581	464.986298302432	11
66	87672	465.597042307196	11
66	87723	465.604539302432	11
66	88327	467.459262302432	11
67	22067	127.419215307196	11
67	65354	379.050799302432	11
68	20262	114.443266586198	0
68	22072	127.425956672055	0
68	25174	147.827690967388	0
68	31560	186.160355845855	0
68	31624	186.184871909429	0
68	32176	188.635085237022	0
68	34231	202.852097313786	0
68	36637	220.162349266602	0
68	65369	379.059564740213	0
68	69646	394.513591791059	0
68	73430	409.354575038592	0
68	73739	409.466155285651	0
68	73818	409.493524482915	0
68	74294	411.218984942924	0
68	76409	419.878413385183	0
68	77711	424.810181190535	0
68	77840	424.831828961964	0
69	20262	114.443266586198	94.597985279002
69	22072	127.425956672055	0.006741364859
69	25174	147.827690967388	20.408475660192
69	31560	186.160355845855	58.741140538659
69	31624	186.184871909429	58.765656602233
69	32176	188.635085237022	61.215869929826
69	34231	202.852097313786	75.43288200659
69	36637	220.162349266602	92.743133959406
69	65369	379.059564740213	0.008765437781
69	69646	394.513591791059	15.462792488627
69	73430	409.354575038592	30.30377573616
69	73739	409.466155285651	0.006989662706
69	73818	409.493524482915	0.03435885997
69	74294	411.218984942924	0.007292549237
69	76409	419.878413385183	0.008237557315
69	77711	424.810181190535	15.35101556759
69	77840	424.831828961964	0.007018014557
70	20264	114.443266586198	2
70	20275	114.445026586198	1
70	22074	127.425956672055	2
70	22085	127.427716672055	1
70	25176	147.827690967388	2
70	25187	147.829450967388	1
70	30065	177.821168307196	2
70	30076	177.821808307196	1
70	31562	186.160355845855	2
70	31573	186.162115845855	1
70	31626	186.184871909429	2
70	31637	186.186631909429	1
70	32178	188.635085237022	2
70	32189	188.636845237022	1
70	34233	202.852097313786	2
70	34244	202.853857313786	1
70	36639	220.162349266602	2
70	36650	220.164109266602	1
70	42964	262.520185307196	2
70	42975	262.520825307196	1
70	47706	292.560819350245	2
70	47717	292.561459350245	1
70	54358	323.404693893452	2
70	54370	323.405333893452	1
70	59875	353.612383023665	2
70	59886	353.613023023665	1
70	65371	379.059564740213	2
70	65427	379.061324740213	1
70	69648	394.513591791059	2
70	69660	394.515351791059	1
70	73432	409.354575038592	2
70	73488	409.356335038592	1
70	73741	409.466155285651	2
70	73752	409.467915285651	1
70	73820	409.493524482915	2
70	73831	409.493940482915	1
70	74296	411.218984942924	2
70	74308	411.219400942924	1
70	76411	419.878413385183	2
70	76422	419.878893385183	1
70	77713	424.810181190535	2
70	77724	424.810597190535	1
70	77842	424.831828961964	2
70	77854	424.832244961964	1
71	19431	110.13598159735	6
71	21712	125.589187004237	7
71	23979	140.430440321568	8
71	26285	155.268858536719	9
71	28867	170.7197177469	10
71	31476	185.557612998702	11
71	33746	200.399486900755	12
71	40410	245.213903716832	13
71	45009	275.538776047594	14
71	50700	305.70270289953	15
71	56702	336.676108336608	16
71	62563	366.954349258748	17
71	77508	424.20818495664	18
71	81539	439.691439255692	19
71	85046	454.561578753988	20
73	19301	110.007497240896	1
73	35825	215.108467240896	2
74	19434	110.624970271968	1
74	35971	216.344181271968	2
75	19436	110.624970371968	1
75	35973	216.344181371968	2
76	19825	111.862220307196	1
76	36408	218.817913307196	2
77	21504	124.845281307196	1
77	38403	232.419215307196	2
78	49058	300	0
78	71617	401.556623407681	1
78	71617	401.556623407681	0
79	50452	305.113760821129	0
79	52415	315.235172561943	10.211426746753
79	72661	406.641832424603	0
79	75525	416.730775825197	10.123066911948
80	51574	310.211426746753	10.211426746753
80	53512	320.294218724596	10.082791977843
80	55626	330.49096815834	10.196749433744
80	57505	340.636467397482	10.145499239142
80	59431	350.836773033476	10.200305635994
80	61220	360.980644243608	10.143871210132
80	63486	371.118265198561	10.137620954953
80	65947	381.261566715988	10.143301517427
80	68402	391.386425780634	10.124859064646
80	71617	401.556623407681	10.170197627047
80	74357	411.679690319629	10.123066911948
80	76888	421.824764733025	10.145074413396
80	79662	431.94835960844	10.123594875415
80	82091	442.279099555048	10.330739946608
80	84371	452.418407054814	10.139307499766
80	86954	462.547512848394	10.12910579358
81	51574	310.211426746753	220.92897064726
81	53512	320.294218724596	200.73804998137
81	55626	330.49096815834	221.24697823154
81	57505	340.636467397482	199.49732904136
81	59431	350.836773033476	221.16984338579
81	61220	360.980644243608	199.52934713705
81	63486	371.118265198561	222.53741879132
81	65947	381.261566715988	199.54055358826
81	68402	391.386425780634	222.81791633797
81	71617	401.556623407681	199.01284854262
81	74357	411.679690319629	222.85736324999
81	76888	421.824764733025	199.50568300686
81	79662	431.94835960844	222.84574084238
81	82091	442.279099555048	195.92013838898
81	84371	452.418407054814	222.50040252276
81	86954	462.547512848394	199.8202053811
82	54890	325.439857948916	0
82	56367	335.55789879982	10.196749433744
82	78321	426.88749634742	0
82	80648	437.009584014478	10.123594875415
83	58693	345.739581876865	0
83	60486	355.896487535008	10.200305635994
83	83076	447.306264795477	0
83	85545	457.483771697613	10.139307499766
84	62294	366.068561277625	0
84	64292	376.151410780222	10.137620954953
84	88401	467.615212017763	0
85	64826	377.869956752344	1
85	64954	377.894794433593	1
85	65476	379.079642708201	1
85	68942	392.049450427089	1
85	69710	394.533669759047	1
85	73539	409.37465300658	1
85	73667	409.430861449856	1
85	73797	409.486233253639	1
85	74222	411.2007941095	1
85	75454	416.691080136675	1
85	76337	419.8561681095	1
85	76466	419.882258082131	1
85	76955	421.88749634742	1
85	77768	424.813214223931	1
85	77827	424.824394736443	1
85	77893	424.833695420677	1
85	78323	426.88749634742	1
85	79938	432.8392291095	1
85	80786	437.1669161095	1
85	81878	441.4946031095	1
85	87922	466.023786932784	1
86	64826	377.869956752344	0
86	64954	377.894794433593	0
86	65476	379.079642708201	0
86	68942	392.049450427089	1
86	69710	394.533669759047	0
86	73539	409.37465300658	0
86	73667	409.430861449856	0
86	73797	409.486233253639	0
86	74222	411.2007941095	0
86	75454	416.691080136675	1
86	76337	419.8561681095	1
86	76466	419.882258082131	1
86	76955	421.88749634742	0
86	77768	424.813214223931	0
86	77827	424.824394736443	0
86	77893	424.833695420677	0
86	78323	426.88749634742	0
86	79938	432.8392291095	0
86	80786	437.1669161095	0
86	81878	441.4946031095	1
86	87922	466.023786932784	1
87	64892	377.882667169599	1
88	64892	377.882667169599	3
89	67269	386.33982264416	0
89	70236	396.449999999886	10.124859064646
90	73662	409.419678935457	1
