version 3
run General-29-20220131-12:34:26-7809
attr configname General
attr datetime 20220131-12:34:26
attr datetimef 20220131-123426
attr experiment General
attr inifile HybridMeter.ini
attr iterationvars ""
attr iterationvarsd ""
attr iterationvarsf ""
attr measurement ""
attr network HybridMeter_Net
attr processid 7809
attr repetition 29
attr replication #29
attr resultdir results
attr runnumber 29
attr seedset 29
config debug-on-errors true
config image-path ../../../../inet4.3/images
config network HybridMeter_Net
config **.*.*.BERFilename "\"./BERDATA/RSC_M_2.txt\""
config **.*.*.standaloneRFNetwork false
config **.radio.centerFrequency "2450 MHz"
config **.radio.bandwidth "2.8 MHz"
config **.radio.headerLength "(1 *8 + 7 + 1) * 16us"
config **.transmitter.modulation "\"BPSK\""
config **.transmitter.bitrate 250kbps
config **.transmitter.power 2.24mW
config **.receiver.modulation "\"BPSK\""
config **.receiver.sensitivity -100dBm
config **.receiver.minInterferencePower -120dBm
config *.RfBaseNode.mobility.typename StationaryMobility
config *.PLC_BN.hasRF true
config *.PLC_BN.hasPRIME true
config *.PLC_BN.mac.ISendtoRFPHY true
config *.RfServiceNode.mobility.typename StationaryMobility
config *.PLC_SN[*].hasRF true
config *.PLC_SN[*].hasPRIME true
config *.PLC_SN[*].mac.ISendtoRFPHY true
config sim-time-limit 1000s
config **.endSimTime 50000
config **.uniform_d true
config **.fixedArch false
config **.recordDLMSCOSEMAppMsgRoundtripLatency true
config **.recordDLMSCOSEMAppMsgLatency false
config **.recordDLMSCOSEMAppTTRAllMeters true
config **.record_app_roundtrip true
config **.record_PRO_Num_Switches true
config **.record_REG true
config **.printLog false
config **.PLC_BN.mac.DEFAULT_ALV_TIME 120
config **.BER_SIM -1.0
config **.PLC_SN[*].mac.DEFAULT_COMMUNICATION_MODE 0
config **.PLC_SN[*].mac.RANDOM_REGISTRATION_NUMBER 10
config **.PLC_SN[*].mac.RANDOM_REGISTRATION false
config **.PLC_SN[*].mac.ALV_OFFSET 60
config **.PLC_SN[*].mac.SWITCH_CAPABILITY true
config **.mac.PRN_WAIT_TIME 30
config **.interAppMsgTime 10.0
config **.firstAppMsgAt 300.0
config **.PLC_BN.mac.promotionNode_EUI48 -1
config **.PLC_BN.mac.promotionNode_2ndLevel_EUI48 -1
config **.ctrlIndComMode 0
config **.initialIndComMode 0
config **.usePRM true
config **.interPromotionTime 200
config **.appBlockBehaviour true
config **.AppReqMsgSize_Bytes 70
config **.AppResMsgSize_Bytes 1568
config **.AppGetReqSize_Bytes 71
config **.AppGetReqNextSize_Bytes 14
config **.AppResBlockSize_Bytes 239
config **.AppProcessingTime 5.0
config **.llc.llcReTxTimer 10
config **.PLC_SN[*].mac.allowSwitchIfDBPSK_FEC true
config **.PLC_SN[*].mac.refreshSwitchPower false
config **.PLC_SN[*].mac.numDisconnectionsBeforePRN 5
config **.alvNChances 3
config **.plcBus[*].impulsive false
config **.sequentialPollingInterval 9
config **.useSequentialPolling true
config **.sendALV true
config **.appTimeOut 50
config **.txQueueLimit 10000
config warmup-period 5s
config **.llc.CIMTUSizeBytes 256
config **.llc.CIMTUSizeBits 2048
config **.llc.defaultWindowSize 1
config repeat 500
config **.appBehavior 2001
config **.nBranches 2
config **.PLC_SN[*].mac.CAP_CFP false
config **.PLC_SN[*].llc.CAP_CFP false
config **.PLC_BN.mac.policy 1
config **.plcBus[*].nullAttenuation true
config **.nHostsPerBranch 3
config **.attFileAddress "\"topologiasLINTER/att/mil_nodos_att.txt\""
config **.CAP_CFP_NUM_SN -1
config **.busLength 400
config **.positions "\"25 38 37\""
config **.archFileAddress "\"\""

vector 0 HybridMeter_Net.PLC_BN.mac PLCAccessDelay ETV
vector 1 HybridMeter_Net.PLC_BN.rflan.wlan.radio transmissionState:vector ETV
attr interpolationmode sample-hold
attr source transmissionStateChanged
attr title "Radio transmission state, vector"
vector 2 HybridMeter_Net.PLC_SN[0].rflan.wlan.radio receptionState:vector ETV
attr interpolationmode sample-hold
attr source receptionStateChanged
attr title "Radio reception state, vector"
vector 3 HybridMeter_Net.PLC_SN[1].rflan.wlan.radio receptionState:vector ETV
attr interpolationmode sample-hold
attr source receptionStateChanged
attr title "Radio reception state, vector"
vector 4 HybridMeter_Net.PLC_SN[2].rflan.wlan.radio receptionState:vector ETV
attr interpolationmode sample-hold
attr source receptionStateChanged
attr title "Radio reception state, vector"
vector 5 HybridMeter_Net.PLC_SN[3].rflan.wlan.radio receptionState:vector ETV
attr interpolationmode sample-hold
attr source receptionStateChanged
attr title "Radio reception state, vector"
vector 6 HybridMeter_Net.PLC_SN[4].rflan.wlan.radio receptionState:vector ETV
attr interpolationmode sample-hold
attr source receptionStateChanged
attr title "Radio reception state, vector"
vector 7 HybridMeter_Net.PLC_SN[5].rflan.wlan.radio receptionState:vector ETV
attr interpolationmode sample-hold
attr source receptionStateChanged
attr title "Radio reception state, vector"
vector 8 HybridMeter_Net.PLC_SN[0].mac I_received_BCN ETV
vector 9 HybridMeter_Net.PLC_SN[1].mac I_received_BCN ETV
vector 10 HybridMeter_Net.PLC_SN[2].mac I_received_BCN ETV
vector 11 HybridMeter_Net.PLC_SN[3].mac I_received_BCN ETV
vector 12 HybridMeter_Net.PLC_SN[4].mac I_received_BCN ETV
vector 13 HybridMeter_Net.PLC_SN[5].mac I_received_BCN ETV
vector 14 HybridMeter_Net.PLC_SN[1].mac I_sent_REG_REQ ETV
vector 15 HybridMeter_Net.PLC_SN[2].mac I_sent_REG_REQ ETV
vector 16 HybridMeter_Net.PLC_SN[3].mac I_sent_REG_REQ ETV
vector 17 HybridMeter_Net.PLC_SN[4].mac I_sent_REG_REQ ETV
vector 18 HybridMeter_Net.PLC_SN[5].mac I_sent_REG_REQ ETV
vector 19 HybridMeter_Net.PLC_SN[1].mac PLCTxAttemptsBeforeTx ETV
vector 20 HybridMeter_Net.PLC_SN[1].mac PLCAccessDelay ETV
vector 21 HybridMeter_Net.PLC_SN[1].rflan.wlan.radio transmissionState:vector ETV
attr interpolationmode sample-hold
attr source transmissionStateChanged
attr title "Radio transmission state, vector"
vector 22 HybridMeter_Net.PLC_BN.rflan.wlan.radio receptionState:vector ETV
attr interpolationmode sample-hold
attr source receptionStateChanged
attr title "Radio reception state, vector"
vector 23 HybridMeter_Net.PLC_SN[2].mac PLCTxAttemptsBeforeTx ETV
vector 24 HybridMeter_Net.PLC_SN[2].mac PLCAccessDelay ETV
vector 25 HybridMeter_Net.PLC_SN[2].rflan.wlan.radio transmissionState:vector ETV
attr interpolationmode sample-hold
attr source transmissionStateChanged
attr title "Radio transmission state, vector"
vector 26 HybridMeter_Net.PLC_BN.mac PLCTxQueueLength ETV
vector 27 HybridMeter_Net.PLC_BN.mac PLCTxQueueLengthALV ETV
vector 28 HybridMeter_Net.PLC_BN.mac PLCTxAttemptsBeforeTx ETV
vector 29 HybridMeter_Net.PLC_SN[4].mac PLCTxAttemptsBeforeTx ETV
vector 30 HybridMeter_Net.PLC_SN[4].mac PLCAccessDelay ETV
vector 31 HybridMeter_Net.PLC_SN[4].rflan.wlan.radio transmissionState:vector ETV
attr interpolationmode sample-hold
attr source transmissionStateChanged
attr title "Radio transmission state, vector"
vector 32 HybridMeter_Net.PLC_BN.mac PLCNumRegNodes ETV
vector 33 HybridMeter_Net.PLC_BN.mac Registering_EUI48 ETV
vector 34 HybridMeter_Net.PLC_SN[5].mac PLCTxAttemptsBeforeTx ETV
vector 35 HybridMeter_Net.PLC_SN[5].mac PLCAccessDelay ETV
vector 36 HybridMeter_Net.PLC_SN[5].rflan.wlan.radio transmissionState:vector ETV
attr interpolationmode sample-hold
attr source transmissionStateChanged
attr title "Radio transmission state, vector"
vector 37 HybridMeter_Net.PLC_SN[3].mac PLCnumberOfmacSCPMaxTxAttempts ETV
vector 38 HybridMeter_Net.PLC_SN[3].mac PLCTxAttemptsBeforeTx ETV
vector 39 HybridMeter_Net.PLC_SN[3].mac PLCAccessDelay ETV
vector 40 HybridMeter_Net.PLC_SN[3].rflan.wlan.radio transmissionState:vector ETV
attr interpolationmode sample-hold
attr source transmissionStateChanged
attr title "Radio transmission state, vector"
vector 41 HybridMeter_Net.PLC_SN[0].mac I_sent_REG_REQ ETV
vector 42 HybridMeter_Net.PLC_SN[0].mac PLCTxAttemptsBeforeTx ETV
vector 43 HybridMeter_Net.PLC_SN[0].mac PLCAccessDelay ETV
vector 44 HybridMeter_Net.PLC_SN[0].rflan.wlan.radio transmissionState:vector ETV
attr interpolationmode sample-hold
attr source transmissionStateChanged
attr title "Radio transmission state, vector"
vector 45 HybridMeter_Net.PLC_BN.BNApp DLMSCOSEMAppTTRAllMeters ETV
vector 46 HybridMeter_Net.PLC_SN[0].SNApp app_roundtrip ETV
vector 47 HybridMeter_Net.PLC_BN.BNApp DLMSCOSEMAppMsgRoundtripLatency ETV
vector 48 HybridMeter_Net.PLC_BN.BNApp appMsg_bps ETV
vector 49 HybridMeter_Net.PLC_SN[1].SNApp app_roundtrip ETV
vector 50 HybridMeter_Net.PLC_SN[2].SNApp app_roundtrip ETV
vector 51 HybridMeter_Net.PLC_SN[3].SNApp app_roundtrip ETV
vector 52 HybridMeter_Net.PLC_SN[4].SNApp app_roundtrip ETV
vector 53 HybridMeter_Net.PLC_SN[5].SNApp app_roundtrip ETV
0	36	5	0
0	158	5.042548915091	0.00897347965
0	302	5.113476650552	0.008928123416
0	351	5.125400283151	0.020851756015
0	440	5.214483320684	0.007179110393
0	557	5.283763360111	0.009772040247
0	636	5.309910428258	0.035919108394
0	712	5.405037014789	0.009411800377
0	828	5.473546630615	0.008722540782
0	868	5.485255821931	0.020431732098
0	933	5.618241	0
0	1016	5.66144130001	0.008093105709
0	1132	5.729267512373	0.010004357247
0	1171	5.738145784731	0.018882629605
0	1250	5.943155200972	0.007302693909
0	1332	6.236482	0
0	1383	6.854723	0
0	1434	7.472964	0
0	1480	7.510728839117	0.007311502849
0	1562	8.091205	0
0	1608	8.628104447217	0.009015122164
0	1690	8.709446	0
0	1741	9.327687	0
0	1787	9.490585928173	0.008952453807
0	1869	9.945928	0
0	1920	10.564169	0
0	1971	11.18241	0
0	2022	11.800651	0
0	2073	12.418892	0
0	2124	13.037133	0
0	2175	13.655374	0
0	2226	14.273615	0
0	2277	14.891856	0
0	2328	15.510097	0
0	2379	16.128338	0
0	2430	16.746579	0
0	2481	17.36482	0
0	2532	17.983061	0
0	2583	18.601302	0
0	2634	19.219543	0
0	2685	19.837784	0
0	2734	20.114585727858	15.010037200722
0	2853	20.15550695633	0.009082056269
0	2960	20.456025	0
0	3065	20.474914940739	15.010090850906
0	3146	20.499516988604	0.02496107046
0	3186	20.510959380297	0.036403462153
0	3251	21.074266	0
0	3302	21.692507	0
0	3353	22.310748	0
0	3404	22.928989	0
0	3450	23.208988530448	0.008621462159
0	3532	23.54723	0
0	3583	24.165471	0
0	3634	24.783712	0
0	3685	25.401953	0
0	3736	26.020194	0
0	3787	26.638435	0
0	3838	27.256676	0
0	3889	27.874917	0
0	3940	28.493158	0
0	3991	29.111399	0
0	4042	29.72964	0
0	4093	30.347881	0
0	4144	30.966122	0
0	4195	31.584363	0
0	4246	32.202604	0
0	4297	32.820845	0
0	4348	33.439086	0
0	4399	34.057327	0
0	4450	34.675568	0
0	4498	35.111428281478	30.006879754342
0	4579	35.151152235892	0.009230609799
0	4704	35.218874799068	0.009990244966
0	4846	35.25202935376	0.043144799658
0	4922	35.273956037779	0.007952236628
0	5006	35.293809	0
0	5052	35.312645317171	0.04664151602
0	5092	35.481615869785	15.007059951641
0	5173	35.501577453701	0.007162861446
0	5214	35.511390815165	0.01697622291
0	5336	35.91205	0
0	5387	36.530291	0
0	5438	37.148532	0
0	5489	37.766773	0
0	5540	38.385014	0
0	5591	39.003255	0
0	5642	39.621496	0
0	5693	40.239737	0
0	5739	40.778425639422	0.010204287911
0	5821	40.857978	0
0	5872	41.476219	0
0	5923	42.09446	0
0	5974	42.712701	0
0	6025	43.330942	0
0	6076	43.949183	0
0	6127	44.567424	0
0	6178	45.185665	0
0	6229	45.803906	0
0	6280	46.422147	0
0	6331	47.040388	0
0	6382	47.658629	0
0	6433	48.27687	0
0	6484	48.895111	0
0	6535	49.513352	0
0	6587	50.131593	0
0	6670	50.160045588646	0.008792647354
0	6749	50.182421474248	0.031168532956
0	6793	50.749834	0
0	6844	51.368075	0
0	6895	51.986316	0
0	6946	52.604557	0
0	6997	53.222798	0
0	7048	53.841039	0
0	7099	54.45928	0
0	7150	55.077521	0
0	7201	55.695762	0
0	7252	56.314003	0
0	7303	56.932244	0
0	7354	57.550485	0
0	7405	58.168726	0
0	7456	58.786967	0
0	7507	59.405208	0
0	7558	60.023449	0
0	7609	60.64169	0
0	7660	61.259931	0
0	7711	61.878172	0
0	7762	62.496413	0
0	7813	63.114654	0
0	7864	63.732895	0
0	7915	64.351136	0
0	7966	64.969377	0
0	8017	65.587618	0
0	8068	66.205859	0
0	8119	66.8241	0
0	8170	67.442341	0
0	8221	68.060582	0
0	8272	68.678823	0
0	8323	69.297064	0
0	8374	69.915305	0
0	8425	70.533546	0
0	8476	71.151787	0
0	8527	71.770028	0
0	8578	72.388269	0
0	8629	73.00651	0
0	8680	73.624751	0
0	8731	74.242992	0
0	8782	74.861233	0
0	8833	75.479474	0
0	8884	76.097715	0
0	8935	76.715956	0
0	8986	77.334197	0
0	9037	77.952438	0
0	9088	78.570679	0
0	9139	79.18892	0
0	9190	79.807161	0
0	9236	79.942124616159	0.006272109096
0	9318	80.425402	0
0	9369	81.043643	0
0	9415	81.511235709124	0.007818372856
0	9497	81.661884	0
0	9548	82.280125	0
0	9594	82.627134393676	0.008045068623
0	9676	82.898366	0
0	9722	83.490946904388	0.009313430022
0	9804	83.516607	0
0	9855	84.134848	0
0	9906	84.753089	0
0	9957	85.37133	0
0	10008	85.989571	0
0	10059	86.607812	0
0	10110	87.226053	0
0	10161	87.844294	0
0	10212	88.462535	0
0	10263	89.080776	0
0	10314	89.699017	0
0	10365	90.317258	0
0	10416	90.935499	0
0	10467	91.55374	0
0	10518	92.171981	0
0	10569	92.790222	0
0	10620	93.408463	0
0	10671	94.026704	0
0	10722	94.644945	0
0	10773	95.263186	0
0	10824	95.881427	0
0	10875	96.499668	0
0	10926	97.117909	0
0	10972	97.210062197658	0.009695129369
0	11054	97.73615	0
0	11105	98.354391	0
0	11156	98.972632	0
0	11207	99.590873	0
0	11258	100.209114	0
0	11309	100.827355	0
0	11360	101.445596	0
0	11411	102.063837	0
0	11462	102.682078	0
0	11513	103.300319	0
0	11564	103.91856	0
0	11615	104.536801	0
0	11666	105.155042	0
0	11717	105.773283	0
0	11768	106.391524	0
0	11819	107.009765	0
0	11870	107.628006	0
0	11921	108.246247	0
0	11972	108.864488	0
0	12023	109.482729	0
0	12074	110.10097	0
0	12125	110.719211	0
0	12176	111.337452	0
0	12227	111.955693	0
0	12278	112.573934	0
0	12329	113.192175	0
0	12380	113.810416	0
0	12431	114.428657	0
0	12477	114.777075981951	0.00885463044
0	12559	115.046898	0
0	12610	115.665139	0
0	12661	116.28338	0
0	12712	116.901621	0
0	12763	117.519862	0
0	12814	118.138103	0
0	12865	118.756344	0
0	12916	119.374585	0
0	12967	119.992826	0
0	13018	120.611067	0
0	13069	121.229308	0
0	13120	121.847549	0
0	13171	122.46579	0
0	13222	123.084031	0
0	13273	123.702272	0
0	13324	124.320513	0
0	13375	124.938754	0
0	13426	125.556995	0
0	13477	126.175236	0
0	13528	126.793477	0
0	13579	127.411718	0
0	13630	128.029959	0
0	13681	128.6482	0
0	13732	129.266441	0
0	13783	129.884682	0
0	13834	130.502923	0
0	13885	131.121164	0
0	13936	131.739405	0
0	13987	132.357646	0
0	14038	132.975887	0
0	14089	133.594128	0
0	14140	134.212369	0
0	14191	134.83061	0
0	14242	135.448851	0
0	14293	136.067092	0
0	14344	136.685333	0
0	14395	137.303574	0
0	14446	137.921815	0
0	14497	138.540056	0
0	14548	139.158297	0
0	14599	139.776538	0
0	14650	140.394779	0
0	14701	141.01302	0
0	14752	141.631261	0
0	14803	142.249502	0
0	14854	142.867743	0
0	14905	143.485984	0
0	14956	144.104225	0
0	15007	144.722466	0
0	15058	145.340707	0
0	15109	145.958948	0
0	15160	146.577189	0
0	15211	147.19543	0
0	15262	147.813671	0
0	15313	148.431912	0
0	15364	149.050153	0
0	15415	149.668394	0
0	15466	150.286635	0
0	15517	150.904876	0
0	15568	151.523117	0
0	15619	152.141358	0
0	15670	152.759599	0
0	15721	153.37784	0
0	15767	153.94264435973	0.006791852667
0	15849	153.996081	0
0	15900	154.614322	0
0	15951	155.232563	0
0	15997	155.513587877643	0.010170541375
0	16079	155.850804	0
0	16130	156.469045	0
0	16176	156.625325680293	0.00623635524
0	16258	157.087286	0
0	16304	157.488193214836	0.00655974047
0	16386	157.705527	0
0	16437	158.323768	0
0	16488	158.942009	0
0	16539	159.56025	0
0	16590	160.178491	0
0	16641	160.796732	0
0	16692	161.414973	0
0	16743	162.033214	0
0	16794	162.651455	0
0	16845	163.269696	0
0	16896	163.887937	0
0	16947	164.506178	0
0	16998	165.124419	0
0	17049	165.74266	0
0	17100	166.360901	0
0	17151	166.979142	0
0	17202	167.597383	0
0	17253	168.215624	0
0	17304	168.833865	0
0	17355	169.452106	0
0	17406	170.070347	0
0	17457	170.688588	0
0	17503	171.210656477836	0.010289409547
0	17585	171.306829	0
0	17636	171.92507	0
0	17687	172.543311	0
0	17738	173.161552	0
0	17789	173.779793	0
0	17840	174.398034	0
0	17891	175.016275	0
0	17942	175.634516	0
0	17993	176.252757	0
0	18044	176.870998	0
0	18095	177.489239	0
0	18146	178.10748	0
0	18197	178.725721	0
0	18248	179.343962	0
0	18299	179.962203	0
0	18350	180.580444	0
0	18401	181.198685	0
0	18452	181.816926	0
0	18503	182.435167	0
0	18554	183.053408	0
0	18605	183.671649	0
0	18656	184.28989	0
0	18707	184.908131	0
0	18758	185.526372	0
0	18809	186.144613	0
0	18860	186.762854	0
0	18911	187.381095	0
0	18962	187.999336	0
0	19013	188.617577	0
0	19059	188.774555121392	0.006333769881
0	19141	189.235818	0
0	19192	189.854059	0
0	19243	190.4723	0
0	19294	191.090541	0
0	19345	191.708782	0
0	19396	192.327023	0
0	19447	192.945264	0
0	19498	193.563505	0
0	19549	194.181746	0
0	19600	194.799987	0
0	19651	195.418228	0
0	19702	196.036469	0
0	19753	196.65471	0
0	19804	197.272951	0
0	19855	197.891192	0
0	19906	198.509433	0
0	19957	199.127674	0
0	20008	199.745915	0
0	20059	200.364156	0
0	20110	200.982397	0
0	20161	201.600638	0
0	20212	202.218879	0
0	20263	202.83712	0
0	20314	203.455361	0
0	20365	204.073602	0
0	20416	204.691843	0
0	20467	205.310084	0
0	20518	205.928325	0
0	20569	206.546566	0
0	20620	207.164807	0
0	20671	207.783048	0
0	20722	208.401289	0
0	20773	209.01953	0
0	20824	209.637771	0
0	20875	210.256012	0
0	20926	210.874253	0
0	20977	211.492494	0
0	21028	212.110735	0
0	21079	212.728976	0
0	21130	213.347217	0
0	21181	213.965458	0
0	21232	214.583699	0
0	21283	215.20194	0
0	21334	215.820181	0
0	21385	216.438422	0
0	21436	217.056663	0
0	21487	217.674904	0
0	21538	218.293145	0
0	21589	218.911386	0
0	21640	219.529627	0
0	21691	220.147868	0
0	21742	220.766109	0
0	21793	221.38435	0
0	21844	222.002591	0
0	21895	222.620832	0
0	21946	223.239073	0
0	21997	223.857314	0
0	22048	224.475555	0
0	22099	225.093796	0
0	22150	225.712037	0
0	22201	226.330278	0
0	22252	226.948519	0
0	22303	227.56676	0
0	22349	227.94393410974	0.008081602677
0	22431	228.185001	0
0	22482	228.803242	0
0	22533	229.421483	0
0	22579	229.509502417768	0.0060850815
0	22661	230.039724	0
0	22707	230.626845193531	0.007755868478
0	22789	230.657965	0
0	22840	231.276206	0
0	22886	231.490241128498	0.008607654132
0	22968	231.894447	0
0	23019	232.512688	0
0	23070	233.130929	0
0	23121	233.74917	0
0	23172	234.367411	0
0	23223	234.985652	0
0	23274	235.603893	0
0	23325	236.222134	0
0	23376	236.840375	0
0	23427	237.458616	0
0	23478	238.076857	0
0	23529	238.695098	0
0	23580	239.313339	0
0	23631	239.93158	0
0	23682	240.549821	0
0	23733	241.168062	0
0	23784	241.786303	0
0	23835	242.404544	0
0	23886	243.022785	0
0	23937	243.641026	0
0	23988	244.259267	0
0	24039	244.877508	0
0	24085	245.206903982978	0.006536914689
0	24167	245.495749	0
0	24218	246.11399	0
0	24269	246.732231	0
0	24320	247.350472	0
0	24371	247.968713	0
0	24422	248.586954	0
0	24473	249.205195	0
0	24524	249.823436	0
0	24575	250.441677	0
0	24626	251.059918	0
0	24677	251.678159	0
0	24728	252.2964	0
0	24779	252.914641	0
0	24830	253.532882	0
0	24881	254.151123	0
0	24932	254.769364	0
0	24983	255.387605	0
0	25034	256.005846	0
0	25085	256.624087	0
0	25136	257.242328	0
0	25187	257.860569	0
0	25238	258.47881	0
0	25289	259.097051	0
0	25340	259.715292	0
0	25391	260.333533	0
0	25442	260.951774	0
0	25493	261.570015	0
0	25544	262.188256	0
0	25590	262.777251145407	0.009029793896
0	25672	262.806497	0
0	25723	263.424738	0
0	25774	264.042979	0
0	25825	264.66122	0
0	25876	265.279461	0
0	25927	265.897702	0
0	25978	266.515943	0
0	26029	267.134184	0
0	26080	267.752425	0
0	26131	268.370666	0
0	26182	268.988907	0
0	26233	269.607148	0
0	26284	270.225389	0
0	26335	270.84363	0
0	26386	271.461871	0
0	26437	272.080112	0
0	26488	272.698353	0
0	26539	273.316594	0
0	26590	273.934835	0
0	26641	274.553076	0
0	26692	275.171317	0
0	26743	275.789558	0
0	26794	276.407799	0
0	26845	277.02604	0
0	26896	277.644281	0
0	26947	278.262522	0
0	26998	278.880763	0
0	27049	279.499004	0
0	27100	280.117245	0
0	27151	280.735486	0
0	27202	281.353727	0
0	27253	281.971968	0
0	27304	282.590209	0
0	27355	283.20845	0
0	27406	283.826691	0
0	27457	284.444932	0
0	27508	285.063173	0
0	27559	285.681414	0
0	27610	286.299655	0
0	27661	286.917896	0
0	27712	287.536137	0
0	27763	288.154378	0
0	27814	288.772619	0
0	27865	289.39086	0
0	27916	290.009101	0
0	27967	290.627342	0
0	28018	291.245583	0
0	28069	291.863824	0
0	28120	292.482065	0
0	28171	293.100306	0
0	28222	293.718547	0
0	28273	294.336788	0
0	28324	294.955029	0
0	28375	295.57327	0
0	28426	296.191511	0
0	28477	296.809752	0
0	28528	297.427993	0
0	28579	298.046234	0
0	28630	298.664475	0
0	28681	299.282716	0
0	28732	299.900957	0
0	28780	300.007281625682	0.007281625682
0	28864	300.08933824013	0.056587755213
0	28904	300.101583134275	0.068832649358
0	29030	300.519198	0
0	29081	301.137439	0
0	29132	301.75568	0
0	29178	301.9435906908	0.007738183737
0	29260	302.373921	0
0	29311	302.992162	0
0	29357	303.513267459317	0.009850123049
0	29439	303.610403	0
0	29490	304.228644	0
0	29536	304.628179513136	0.009090188083
0	29618	304.846885	0
0	29715	305.18719909045	0.031294667418
0	29760	305.465126	0
0	29806	305.489112766216	0.00747929185
0	29888	306.083367	0
0	29939	306.701608	0
0	29990	307.319849	0
0	30041	307.93809	0
0	30092	308.556331	0
0	30143	309.174572	0
0	30194	309.792813	0
0	30246	310.232473078802	0.07656865577
0	30336	310.411054	0
0	30387	311.029295	0
0	30438	311.647536	0
0	30489	312.265777	0
0	30540	312.884018	0
0	30591	313.502259	0
0	30642	314.1205	0
0	30693	314.738741	0
0	30792	315.356982	0
0	30841	315.405034567923	0.105464376916
0	30886	315.975223	0
0	30937	316.593464	0
0	30988	317.211705	0
0	31039	317.829946	0
0	31090	318.448187	0
0	31141	319.066428	0
0	31187	319.210089980602	0.009722912313
0	31269	319.684669	0
0	31323	320.30291	0
0	31368	320.318860024712	0.019289833705
0	31452	320.378340722137	0.034657493417
0	31493	320.391720886287	0.048037657567
0	31618	320.921151	0
0	31669	321.539392	0
0	31720	322.157633	0
0	31771	322.775874	0
0	31822	323.394115	0
0	31873	324.012356	0
0	31924	324.630597	0
0	31975	325.248838	0
0	32072	325.511531527455	0.073168341362
0	32117	325.867079	0
0	32168	326.48532	0
0	32219	327.103561	0
0	32270	327.721802	0
0	32321	328.340043	0
0	32372	328.958284	0
0	32423	329.576525	0
0	32474	330.194766	0
0	32526	330.490808938378	0.052445752285
0	32616	330.813007	0
0	32667	331.431248	0
0	32718	332.049489	0
0	32769	332.66773	0
0	32820	333.285971	0
0	32871	333.904212	0
0	32922	334.522453	0
0	32973	335.140694	0
0	33070	335.599137890599	0.046243857834
0	33115	335.758935	0
0	33166	336.377176	0
0	33212	336.778311564977	0.010090213466
0	33294	336.995417	0
0	33345	337.613658	0
0	33396	338.231899	0
0	33447	338.85014	0
0	33498	339.468381	0
0	33549	340.086622	0
0	33597	340.55994920947	0.007055176705
0	33681	340.652275719265	0.065683535724
0	33722	340.665469461839	0.078877278298
0	33766	340.704863	0
0	33898	341.323104	0
0	33949	341.941345	0
0	34000	342.559586	0
0	34051	343.177827	0
0	34102	343.796068	0
0	34153	344.414309	0
0	34204	345.03255	0
0	34255	345.650791	0
0	34352	345.800158896321	0.042379844279
0	34397	346.269032	0
0	34448	346.887273	0
0	34499	347.505514	0
0	34550	348.123755	0
0	34601	348.741996	0
0	34652	349.360237	0
0	34703	349.978478	0
0	34754	350.596719	0
0	34806	350.840562868303	0.082783816261
0	34896	351.21496	0
0	34947	351.833201	0
0	34998	352.451442	0
0	35049	353.069683	0
0	35100	353.687924	0
0	35151	354.306165	0
0	35202	354.924406	0
0	35253	355.542647	0
0	35350	356.01564363752	0.063962585671
0	35395	356.160888	0
0	35446	356.779129	0
0	35497	357.39737	0
0	35548	358.015611	0
0	35599	358.633852	0
0	35650	359.252093	0
0	35701	359.870334	0
0	35752	360.488575	0
0	35800	360.960496592311	0.008815540462
0	35884	361.025188625951	0.03864119097
0	35924	361.037536909783	0.050989474802
0	36050	361.106816	0
0	36101	361.725057	0
0	36152	362.343298	0
0	36203	362.961539	0
0	36254	363.57978	0
0	36305	364.198021	0
0	36356	364.816262	0
0	36407	365.434503	0
0	36461	366.052744	0
0	36555	366.20457177082	0.050028689337
0	36600	366.670985	0
0	36651	367.289226	0
0	36702	367.907467	0
0	36753	368.525708	0
0	36804	369.143949	0
0	36855	369.76219	0
0	36906	370.380431	0
0	36957	370.998672	0
0	37009	371.220314587645	0.065771506162
0	37099	371.616913	0
0	37150	372.235154	0
0	37201	372.853395	0
0	37252	373.471636	0
0	37303	374.089877	0
0	37354	374.708118	0
0	37405	375.326359	0
0	37457	375.9446	0
0	37502	375.962771937346	0.026919430283
0	37630	376.346203704027	0.042503420372
0	37675	376.562841	0
0	37726	377.181082	0
0	37772	377.513235655369	0.009818319101
0	37854	377.799323	0
0	37905	378.417564	0
0	37951	378.629498140032	0.010408814979
0	38033	379.035805	0
0	38079	379.491770060061	0.010136585695
0	38161	379.654046	0
0	38212	380.272287	0
0	38263	380.890528	0
0	38311	381.310237487733	0.006537204078
0	38395	381.418129675809	0.080222211704
0	38436	381.43257424565	0.094666781545
0	38561	381.508769	0
0	38612	382.12701	0
0	38663	382.745251	0
0	38714	383.363492	0
0	38765	383.981733	0
0	38816	384.599974	0
0	38867	385.218215	0
0	38918	385.836456	0
0	38972	386.454697	0
0	39066	386.639638674781	0.077758428445
0	39111	387.072938	0
0	39162	387.691179	0
0	39213	388.30942	0
0	39264	388.927661	0
0	39315	389.545902	0
0	39366	390.164143	0
0	39417	390.782384	0
0	39468	391.400625	0
0	39520	391.643089398486	0.08120915215
0	39610	392.018866	0
0	39661	392.637107	0
0	39707	393.209164966844	0.008797898555
0	39789	393.255348	0
0	39840	393.873589	0
0	39891	394.49183	0
0	39942	395.110071	0
0	39993	395.728312	0
0	40044	396.346553	0
0	40141	396.722409105529	0.032316885123
0	40186	396.964794	0
0	40237	397.583035	0
0	40288	398.201276	0
0	40339	398.819517	0
0	40390	399.437758	0
0	40441	400.055999	0
0	40492	400.67424	0
0	40543	401.292481	0
0	40591	401.697774360857	0.007682140451
0	40675	401.801619053417	0.078493520403
0	40715	401.813885568925	0.090760035911
0	40841	401.910722	0
0	40892	402.528963	0
0	40943	403.147204	0
0	40994	403.765445	0
0	41045	404.383686	0
0	41096	405.001927	0
0	41147	405.620168	0
0	41198	406.238409	0
0	41252	406.85665	0
0	41346	406.964054198127	0.030164066074
0	41391	407.474891	0
0	41442	408.093132	0
0	41493	408.711373	0
0	41544	409.329614	0
0	41595	409.947855	0
0	41646	410.566096	0
0	41692	410.778484058095	0.010262706584
0	41774	411.184337	0
0	41825	411.802578	0
0	41877	411.993900660448	0.060010528395
0	41967	412.420819	0
0	42018	413.03906	0
0	42069	413.657301	0
0	42120	414.275542	0
0	42171	414.893783	0
0	42222	415.512024	0
0	42273	416.130265	0
0	42324	416.748506	0
0	42421	417.086678802726	0.023933304157
0	42466	417.366747	0
0	42517	417.984988	0
0	42568	418.603229	0
0	42619	419.22147	0
0	42670	419.839711	0
0	42721	420.457952	0
0	42772	421.076193	0
0	42823	421.694434	0
0	42875	422.312675	0
0	42926	422.930916	0
0	42977	423.549157	0
0	43028	424.167398	0
0	43079	424.785639	0
0	43130	425.40388	0
0	43181	426.022121	0
0	43232	426.640362	0
0	43283	427.258603	0
0	43334	427.876844	0
0	43385	428.495085	0
0	43436	429.113326	0
0	43487	429.731567	0
0	43538	430.349808	0
0	43589	430.968049	0
0	43640	431.58629	0
0	43692	432.145783252151	0.083037753582
0	43782	432.204531	0
0	43833	432.822772	0
0	43884	433.441013	0
0	43935	434.059254	0
0	43986	434.677495	0
0	44037	435.295736	0
0	44088	435.913977	0
0	44139	436.532218	0
0	44190	437.150459	0
0	44287	437.240722081592	0.039053942807
0	44332	437.7687	0
0	44383	438.386941	0
0	44434	439.005182	0
0	44485	439.623423	0
0	44536	440.241664	0
0	44587	440.859905	0
0	44638	441.478146	0
0	44689	442.096387	0
0	44741	442.271973604493	0.070305465708
0	44831	442.714628	0
0	44882	443.332869	0
0	44933	443.95111	0
0	44984	444.569351	0
0	45035	445.187592	0
0	45086	445.805833	0
0	45137	446.424074	0
0	45188	447.042315	0
0	45285	447.386201401588	0.041664415972
0	45330	447.660556	0
0	45381	448.278797	0
0	45432	448.897038	0
0	45483	449.515279	0
0	45529	449.94207526614	0.006222759077
0	45611	450.13352	0
0	45662	450.751761	0
0	45713	451.370002	0
0	45759	451.510648950644	0.007231614376
0	45841	451.988243	0
0	45893	452.413329402725	0.068792417109
0	45983	452.606484	0
0	46029	452.625650162253	0.0065608372
0	46111	453.224725	0
0	46157	453.491393927232	0.009760452866
0	46239	453.842966	0
0	46290	454.461207	0
0	46341	455.079448	0
0	46392	455.697689	0
0	46443	456.31593	0
0	46494	456.934171	0
0	46591	457.529929438699	0.056395492334
0	46636	457.552412	0
0	46687	458.170653	0
0	46738	458.788894	0
0	46789	459.407135	0
0	46840	460.025376	0
0	46891	460.643617	0
0	46942	461.261858	0
0	46993	461.880099	0
0	47047	462.49834	0
0	47096	462.56555004441	0.092016098045
0	47186	463.116581	0
0	47237	463.734822	0
0	47288	464.353063	0
0	47339	464.971304	0
0	47390	465.589545	0
0	47441	466.207786	0
0	47492	466.826027	0
0	47538	467.209732576298	0.009365508009
0	47620	467.444268	0
0	47717	467.749672262604	0.075398149958
0	47762	468.062509	0
0	47813	468.68075	0
0	47864	469.298991	0
0	47915	469.917232	0
0	47966	470.535473	0
0	48017	471.153714	0
0	48068	471.771955	0
0	48119	472.390196	0
0	48171	472.749306695108	0.075032582462
0	48261	473.008437	0
0	48312	473.626678	0
0	48363	474.244919	0
0	48414	474.86316	0
0	48465	475.481401	0
0	48516	476.099642	0
0	48567	476.717883	0
0	48618	477.336124	0
0	48715	477.921501518688	0.067581605635
0	48760	477.954365	0
0	48811	478.572606	0
0	48862	479.190847	0
0	48913	479.809088	0
0	48964	480.427329	0
0	49015	481.04557	0
0	49066	481.663811	0
0	49117	482.282052	0
0	49171	482.900293	0
0	49220	482.996936567224	0.143016654171
0	49310	483.518534	0
0	49361	484.136775	0
0	49412	484.755016	0
0	49458	484.778357943364	0.010136591853
0	49540	485.373257	0
0	49591	485.991498	0
0	49642	486.609739	0
0	49693	487.22798	0
0	49744	487.846221	0
0	49841	488.101632964693	0.045112627137
0	49886	488.464462	0
0	49937	489.082703	0
0	49988	489.700944	0
0	50039	490.319185	0
0	50090	490.937426	0
0	50141	491.555667	0
0	50192	492.173908	0
0	50243	492.792149	0
0	50295	493.097191986113	0.040671648557
0	50385	493.41039	0
0	50436	494.028631	0
0	50487	494.646872	0
0	50538	495.265113	0
0	50589	495.883354	0
0	50640	496.501595	0
0	50691	497.119836	0
0	50742	497.738077	0
0	50839	498.215326645412	0.023764779956
0	50884	498.356318	0
0	50935	498.974559	0
0	50986	499.5928	0
0	51037	500.211041	0
0	51088	500.829282	0
0	51139	501.447523	0
0	51190	502.065764	0
0	51241	502.684005	0
0	51293	503.2500997756	0.058537910144
0	51340	503.302246	0
0	51434	503.920487	0
0	51485	504.538728	0
0	51536	505.156969	0
0	51587	505.77521	0
0	51638	506.393451	0
0	51689	507.011692	0
0	51740	507.629933	0
0	51791	508.248174	0
0	51888	508.366902866217	0.032618122976
0	51933	508.866415	0
0	51984	509.484656	0
0	52035	510.102897	0
0	52086	510.721138	0
0	52137	511.339379	0
0	52188	511.95762	0
0	52239	512.575861	0
0	52290	513.194102	0
0	52342	513.370866163303	0.036581420062
0	52432	513.812343	0
0	52483	514.430584	0
0	52534	515.048825	0
0	52585	515.667066	0
0	52636	516.285307	0
0	52687	516.903548	0
0	52738	517.521789	0
0	52789	518.14003	0
0	52886	518.498338922662	0.058049567242
0	52931	518.758271	0
0	52982	519.376512	0
0	53033	519.994753	0
0	53084	520.612994	0
0	53135	521.231235	0
0	53186	521.849476	0
0	53237	522.467717	0
0	53288	523.085958	0
0	53340	523.52490322867	0.08461387325
0	53430	523.704199	0
0	53476	523.944814671754	0.008962164691
0	53558	524.32244	0
0	53609	524.940681	0
0	53655	525.511952727987	0.008535391719
0	53737	525.558922	0
0	53788	526.177163	0
0	53834	526.628737643029	0.009648317976
0	53916	526.795404	0
0	53967	527.413645	0
0	54013	527.490656265643	0.009022791277
0	54095	528.031886	0
0	54192	528.640265620025	0.050319285841
0	54236	528.650127	0
0	54288	529.268368	0
0	54339	529.886609	0
0	54390	530.50485	0
0	54441	531.123091	0
0	54492	531.741332	0
0	54543	532.359573	0
0	54594	532.977814	0
0	54648	533.596055	0
0	54697	533.625536066279	0.035589732095
0	54787	534.214296	0
0	54838	534.832537	0
0	54889	535.450778	0
0	54940	536.069019	0
0	54991	536.68726	0
0	55042	537.305501	0
0	55093	537.923742	0
0	55144	538.541983	0
0	55241	538.791610356299	0.057635977051
0	55286	539.160224	0
0	55337	539.778465	0
0	55388	540.396706	0
0	55439	541.014947	0
0	55485	541.2078805565	0.007513488211
0	55567	541.633188	0
0	55618	542.251429	0
0	55669	542.86967	0
0	55720	543.487911	0
0	55772	543.810980412652	0.077006033404
0	55862	544.106152	0
0	55913	544.724393	0
0	55964	545.342634	0
0	56015	545.960875	0
0	56066	546.579116	0
0	56117	547.197357	0
0	56168	547.815598	0
0	56219	548.433839	0
0	56316	548.892218947574	0.024301257255
0	56361	549.05208	0
0	56412	549.670321	0
0	56463	550.288562	0
0	56514	550.906803	0
0	56565	551.525044	0
0	56616	552.143285	0
0	56667	552.761526	0
0	56718	553.379767	0
0	56770	553.998008	0
0	56821	554.616249	0
0	56872	555.23449	0
0	56923	555.852731	0
0	56974	556.470972	0
0	57025	557.089213	0
0	57076	557.707454	0
0	57127	558.325695	0
0	57173	558.77517936856	0.006958017049
0	57255	558.943936	0
0	57306	559.562177	0
0	57357	560.180418	0
0	57408	560.798659	0
0	57459	561.4169	0
0	57510	562.035141	0
0	57561	562.653382	0
0	57612	563.271623	0
0	57666	563.889864	0
0	57715	563.938092643165	0.070174952846
0	57805	564.508105	0
0	57856	565.126346	0
0	57907	565.744587	0
0	57958	566.362828	0
0	58009	566.981069	0
0	58060	567.59931	0
0	58111	568.217551	0
0	58162	568.835792	0
0	58259	569.118740185975	0.059540835135
0	58304	569.454033	0
0	58355	570.072274	0
0	58406	570.690515	0
0	58457	571.308756	0
0	58508	571.926997	0
0	58559	572.545238	0
0	58610	573.163479	0
0	58661	573.78172	0
0	58713	574.104610528718	0.045411177878
0	58803	574.399961	0
0	58854	575.018202	0
0	58905	575.636443	0
0	58956	576.254684	0
0	59007	576.872925	0
0	59058	577.491166	0
0	59109	578.109407	0
0	59160	578.727648	0
0	59257	579.249838939851	0.048052920518
0	59302	579.345889	0
0	59353	579.96413	0
0	59404	580.582371	0
0	59455	581.200612	0
0	59506	581.818853	0
0	59557	582.437094	0
0	59608	583.055335	0
0	59659	583.673576	0
0	59711	584.259583167146	0.057797147813
0	59758	584.291817	0
0	59852	584.910058	0
0	59903	585.528299	0
0	59954	586.14654	0
0	60005	586.764781	0
0	60056	587.383022	0
0	60107	588.001263	0
0	60158	588.619504	0
0	60209	589.237745	0
0	60306	589.36601103776	0.051374071848
0	60351	589.855986	0
0	60402	590.474227	0
0	60453	591.092468	0
0	60504	591.710709	0
0	60555	592.32895	0
0	60606	592.947191	0
0	60657	593.565432	0
0	60708	594.183673	0
0	60760	594.397523587564	0.082886621652
0	60850	594.801914	0
0	60901	595.420155	0
0	60952	596.038396	0
0	61003	596.656637	0
0	61054	597.274878	0
0	61105	597.893119	0
0	61151	597.942540430336	0.006687923273
0	61233	598.51136	0
0	61284	599.129601	0
0	61378	599.532774272452	0.029356936184
0	61458	599.620420396679	0.145155758352
0	61503	599.747842	0
0	61554	600.366083	0
0	61600	600.627247911829	0.008158586776
0	61682	600.984324	0
0	61728	601.491812768454	0.010179294088
0	61810	601.602565	0
0	61861	602.220806	0
0	61912	602.839047	0
0	61963	603.457288	0
0	62014	604.075529	0
0	62066	604.557258597008	0.081993958681
0	62156	604.69377	0
0	62207	605.312011	0
0	62258	605.930252	0
0	62309	606.548493	0
0	62360	607.166734	0
0	62411	607.784975	0
0	62462	608.403216	0
0	62513	609.021457	0
0	62612	609.639698	0
0	62661	609.699102884176	0.082877683343
0	62706	610.257939	0
0	62757	610.87618	0
0	62808	611.494421	0
0	62859	612.112662	0
0	62910	612.730903	0
0	62961	613.349144	0
0	63012	613.967385	0
0	63063	614.585626	0
0	63115	614.685642456158	0.069417255325
0	63206	615.203867	0
0	63251	615.222731881216	0.022364812927
0	63333	615.822108	0
0	63384	616.440349	0
0	63435	617.05859	0
0	63486	617.676831	0
0	63537	618.295072	0
0	63588	618.913313	0
0	63639	619.531554	0
0	63736	619.80926942437	0.063745944915
0	63781	620.149795	0
0	63832	620.768036	0
0	63883	621.386277	0
0	63934	622.004518	0
0	63985	622.622759	0
0	64036	623.241	0
0	64087	623.859241	0
0	64138	624.477482	0
0	64190	624.822884558585	0.07736107913
0	64280	625.095723	0
0	64331	625.713964	0
0	64382	626.332205	0
0	64433	626.950446	0
0	64484	627.568687	0
0	64535	628.186928	0
0	64586	628.805169	0
0	64637	629.42341	0
0	64734	629.919896299968	0.030269679406
0	64779	630.041651	0
0	64830	630.659892	0
0	64881	631.278133	0
0	64932	631.896374	0
0	64983	632.514615	0
0	65029	632.778405067267	0.010183715756
0	65111	633.132856	0
0	65162	633.751097	0
0	65213	634.369338	0
0	65265	634.969073667996	0.079447047434
0	65312	634.987579	0
0	65406	635.60582	0
0	65457	636.224061	0
0	65508	636.842302	0
0	65559	637.460543	0
0	65610	638.078784	0
0	65661	638.697025	0
0	65712	639.315266	0
0	65763	639.933507	0
0	65860	640.09299497669	0.075452827311
0	65905	640.551748	0
0	65956	641.169989	0
0	66007	641.78823	0
0	66058	642.406471	0
0	66109	643.024712	0
0	66160	643.642953	0
0	66211	644.261194	0
0	66262	644.879435	0
0	66314	645.077635600049	0.06009345067
0	66404	645.497676	0
0	66455	646.115917	0
0	66506	646.734158	0
0	66557	647.352399	0
0	66608	647.97064	0
0	66659	648.588881	0
0	66710	649.207122	0
0	66761	649.825363	0
0	66858	650.217722173559	0.043925385177
0	66903	650.443604	0
0	66954	651.061845	0
0	67005	651.680086	0
0	67056	652.298327	0
0	67107	652.916568	0
0	67158	653.534809	0
0	67209	654.15305	0
0	67260	654.771291	0
0	67312	655.202163079397	0.028366291015
0	67402	655.389532	0
0	67453	656.007773	0
0	67504	656.626014	0
0	67555	657.244255	0
0	67606	657.862496	0
0	67657	658.480737	0
0	67708	659.098978	0
0	67759	659.717219	0
0	67858	660.33546	0
0	67907	660.375913210998	0.085003118624
0	67952	660.953701	0
0	68003	661.571942	0
0	68054	662.190183	0
0	68105	662.808424	0
0	68156	663.426665	0
0	68207	664.044906	0
0	68258	664.663147	0
0	68309	665.281388	0
0	68361	665.367033987731	0.076123895357
0	68451	665.899629	0
0	68502	666.51787	0
0	68553	667.136111	0
0	68604	667.754352	0
0	68655	668.372593	0
0	68706	668.990834	0
0	68757	669.609075	0
0	68808	670.227316	0
0	68905	670.553374673511	0.071407859497
0	68950	670.845557	0
0	69001	671.463798	0
0	69047	671.944120718507	0.008268211444
0	69129	672.082039	0
0	69180	672.70028	0
0	69231	673.318521	0
0	69277	673.512080624952	0.008663288684
0	69359	673.936762	0
0	69410	674.555003	0
0	69456	674.627567120492	0.008477795439
0	69538	675.173244	0
0	69587	675.487886926466	0.0062534521
0	69667	675.551332731167	0.069365917153
0	69757	675.791485	0
0	69808	676.409726	0
0	69859	677.027967	0
0	69910	677.646208	0
0	69961	678.264449	0
0	70012	678.88269	0
0	70063	679.500931	0
0	70114	680.119172	0
0	70211	680.717468012448	0.054635131283
0	70256	680.737413	0
0	70307	681.355654	0
0	70358	681.973895	0
0	70409	682.592136	0
0	70460	683.210377	0
0	70511	683.828618	0
0	70562	684.446859	0
0	70613	685.0651	0
0	70665	685.683341	0
0	70716	686.301582	0
0	70767	686.919823	0
0	70818	687.538064	0
0	70869	688.156305	0
0	70920	688.774546	0
0	70966	689.206566260061	0.006199191772
0	71048	689.392787	0
0	71099	690.011028	0
0	71150	690.629269	0
0	71201	691.24751	0
0	71252	691.865751	0
0	71303	692.483992	0
0	71354	693.102233	0
0	71405	693.720474	0
0	71456	694.338715	0
0	71507	694.956956	0
0	71558	695.575197	0
0	71610	695.685002867461	0.022169986296
0	71700	696.193438	0
0	71751	696.811679	0
0	71802	697.42992	0
0	71853	698.048161	0
0	71904	698.666402	0
0	71955	699.284643	0
0	72006	699.902884	0
0	72057	700.521125	0
0	72154	700.825665754446	0.031269750326
0	72199	701.139366	0
0	72250	701.757607	0
0	72301	702.375848	0
0	72352	702.994089	0
0	72403	703.61233	0
0	72454	704.230571	0
0	72505	704.848812	0
0	72556	705.467053	0
0	72608	705.817857619411	0.023461615291
0	72698	706.085294	0
0	72749	706.703535	0
0	72795	706.775760394626	0.007539043115
0	72877	707.321776	0
0	72928	707.940017	0
0	72979	708.558258	0
0	73030	709.176499	0
0	73081	709.79474	0
0	73132	710.412981	0
0	73229	710.952170650259	0.029041128273
0	73274	711.031222	0
0	73325	711.649463	0
0	73376	712.267704	0
0	73427	712.885945	0
0	73478	713.504186	0
0	73529	714.122427	0
0	73580	714.740668	0
0	73631	715.358909	0
0	73683	715.958238810457	0.035109288471
0	73730	715.97715	0
0	73824	716.595391	0
0	73875	717.213632	0
0	73926	717.831873	0
0	73977	718.450114	0
0	74028	719.068355	0
0	74079	719.686596	0
0	74130	720.304837	0
0	74181	720.923078	0
0	74278	721.134437585841	0.076048445065
0	74323	721.541319	0
0	74374	722.15956	0
0	74425	722.777801	0
0	74476	723.396042	0
0	74527	724.014283	0
0	74578	724.632524	0
0	74629	725.250765	0
0	74680	725.869006	0
0	74732	726.130171780613	0.071782639837
0	74822	726.487247	0
0	74873	727.105488	0
0	74924	727.723729	0
0	74975	728.34197	0
0	75026	728.960211	0
0	75077	729.578452	0
0	75128	730.196693	0
0	75179	730.814934	0
0	75276	731.242575033646	0.063658215687
0	75321	731.433175	0
0	75372	732.051416	0
0	75423	732.669657	0
0	75474	733.287898	0
0	75525	733.906139	0
0	75576	734.52438	0
0	75627	735.142621	0
0	75678	735.760862	0
0	75730	736.233405836251	0.054489018292
0	75820	736.379103	0
0	75871	736.997344	0
0	75922	737.615585	0
0	75973	738.233826	0
0	76024	738.852067	0
0	76075	739.470308	0
0	76126	740.088549	0
0	76177	740.70679	0
0	76231	741.325031	0
0	76325	741.48522921038	0.08525585757
0	76370	741.943272	0
0	76421	742.561513	0
0	76472	743.179754	0
0	76523	743.797995	0
0	76574	744.416236	0
0	76625	745.034477	0
0	76676	745.652718	0
0	76722	745.943509003923	0.00765649686
0	76804	746.270959	0
0	76856	746.486865518259	0.086892165449
0	76946	746.8892	0
0	76998	747.507441	0
0	77043	747.522930688027	0.019513351759
0	77125	748.125682	0
0	77171	748.628519254212	0.009429929159
0	77253	748.743923	0
0	77304	749.362164	0
0	77350	749.491279466817	0.009645992451
0	77432	749.980405	0
0	77483	750.598646	0
0	77534	751.216887	0
0	77631	751.640365248543	0.086776617861
0	77676	751.835128	0
0	77727	752.453369	0
0	77778	753.07161	0
0	77829	753.689851	0
0	77880	754.308092	0
0	77931	754.926333	0
0	77982	755.544574	0
0	78033	756.162815	0
0	78085	756.592392703184	0.038804072502
0	78175	756.781056	0
0	78226	757.399297	0
0	78277	758.017538	0
0	78328	758.635779	0
0	78379	759.25402	0
0	78430	759.872261	0
0	78481	760.490502	0
0	78532	761.108743	0
0	78629	761.712696890076	0.021225473356
0	78674	761.726984	0
0	78725	762.345225	0
0	78776	762.963466	0
0	78822	763.209682774284	0.009315705995
0	78904	763.581707	0
0	78955	764.199948	0
0	79006	764.818189	0
0	79057	765.43643	0
0	79108	766.054671	0
0	79159	766.672912	0
0	79211	766.717635033907	0.026163617187
0	79301	767.291153	0
0	79352	767.909394	0
0	79403	768.527635	0
0	79454	769.145876	0
0	79505	769.764117	0
0	79556	770.382358	0
0	79607	771.000599	0
0	79658	771.61884	0
0	79755	771.887735304703	0.058228929942
0	79800	772.237081	0
0	79851	772.855322	0
0	79902	773.473563	0
0	79953	774.091804	0
0	80004	774.710045	0
0	80055	775.328286	0
0	80106	775.946527	0
0	80157	776.564768	0
0	80209	776.876300235304	0.046793860543
0	80299	777.183009	0
0	80350	777.80125	0
0	80401	778.419491	0
0	80452	779.037732	0
0	80503	779.655973	0
0	80554	780.274214	0
0	80600	780.777588842033	0.009367490522
0	80682	780.892455	0
0	80733	781.510696	0
0	80830	782.006869453784	0.056019285092
0	80875	782.128937	0
0	80926	782.747178	0
0	80977	783.365419	0
0	81028	783.98366	0
0	81079	784.601901	0
0	81130	785.220142	0
0	81181	785.838383	0
0	81232	786.456624	0
0	81284	787.001552512266	0.050702343574
0	81331	787.074865	0
0	81425	787.693106	0
0	81476	788.311347	0
0	81527	788.929588	0
0	81578	789.547829	0
0	81629	790.16607	0
0	81680	790.784311	0
0	81731	791.402552	0
0	81785	792.020793	0
0	81879	792.216388802023	0.075972278268
0	81924	792.639034	0
0	81975	793.257275	0
0	82026	793.875516	0
0	82077	794.493757	0
0	82128	795.111998	0
0	82179	795.730239	0
0	82230	796.34848	0
0	82281	796.966721	0
0	82333	797.209181690991	0.068765167236
0	82423	797.584962	0
0	82474	798.203203	0
0	82525	798.821444	0
0	82576	799.439685	0
0	82627	800.057926	0
0	82678	800.676167	0
0	82729	801.294408	0
0	82780	801.912649	0
0	82877	802.328886860518	0.022810370562
0	82922	802.53089	0
0	82973	803.149131	0
0	83024	803.767372	0
0	83075	804.385613	0
0	83126	805.003854	0
0	83177	805.622095	0
0	83228	806.240336	0
0	83279	806.858577	0
0	83331	807.383778375551	0.077701885595
0	83421	807.476818	0
0	83472	808.095059	0
0	83523	808.7133	0
0	83574	809.331541	0
0	83625	809.949782	0
0	83676	810.568023	0
0	83727	811.186264	0
0	83778	811.804505	0
0	83832	812.422746	0
0	83926	812.600552554515	0.083501696794
0	83971	813.040987	0
0	84022	813.659228	0
0	84073	814.277469	0
0	84124	814.89571	0
0	84175	815.513951	0
0	84226	816.132192	0
0	84277	816.750433	0
0	84328	817.368674	0
0	84380	817.986915	0
0	84431	818.605156	0
0	84482	819.223397	0
0	84533	819.841638	0
0	84579	819.945643472027	0.009790964964
0	84661	820.459879	0
0	84712	821.07812	0
0	84758	821.510210310474	0.006792974206
0	84840	821.696361	0
0	84891	822.314602	0
0	84937	822.627409086776	0.008319761723
0	85019	822.932843	0
0	85065	823.490495418753	0.008861944387
0	85147	823.551084	0
0	85198	824.169325	0
0	85249	824.787566	0
0	85300	825.405807	0
0	85351	826.024048	0
0	85402	826.642289	0
0	85453	827.26053	0
0	85505	827.590670680111	0.07361982239
0	85595	827.878771	0
0	85646	828.497012	0
0	85697	829.115253	0
0	85748	829.733494	0
0	85799	830.351735	0
0	85850	830.969976	0
0	85901	831.588217	0
0	85952	832.206458	0
0	86049	832.747157100987	0.057812060637
0	86094	832.824699	0
0	86145	833.44294	0
0	86196	834.061181	0
0	86247	834.679422	0
0	86298	835.297663	0
0	86349	835.915904	0
0	86400	836.534145	0
0	86451	837.152386	0
0	86497	837.210146836565	0.009779768276
0	86580	837.765798757625	0.076453717275
0	86626	837.770627	0
0	86721	838.388868	0
0	86772	839.007109	0
0	86823	839.62535	0
0	86874	840.243591	0
0	86925	840.861832	0
0	86976	841.480073	0
0	87027	842.098314	0
0	87078	842.716555	0
0	87175	842.880205842519	0.054850619943
0	87220	843.334796	0
0	87271	843.953037	0
0	87322	844.571278	0
0	87373	845.189519	0
0	87424	845.80776	0
0	87475	846.426001	0
0	87526	847.044242	0
0	87577	847.662483	0
0	87629	847.853430603111	0.028075380535
0	87719	848.280724	0
0	87770	848.898965	0
0	87821	849.517206	0
0	87872	850.135447	0
0	87923	850.753688	0
0	87974	851.371929	0
0	88025	851.99017	0
0	88076	852.608411	0
0	88173	853.004235127654	0.081986335258
0	88218	853.226652	0
0	88269	853.844893	0
0	88320	854.463134	0
0	88366	854.777677084253	0.009455732742
0	88448	855.081375	0
0	88499	855.699616	0
0	88550	856.317857	0
0	88601	856.936098	0
0	88652	857.554339	0
0	88704	857.972404569772	0.050155777376
0	88794	858.17258	0
0	88845	858.790821	0
0	88896	859.409062	0
0	88947	860.027303	0
0	88998	860.645544	0
0	89049	861.263785	0
0	89100	861.882026	0
0	89151	862.500267	0
0	89248	863.079265336071	0.021276257463
0	89293	863.118508	0
0	89344	863.736749	0
0	89395	864.35499	0
0	89446	864.973231	0
0	89497	865.591472	0
0	89548	866.209713	0
0	89599	866.827954	0
0	89650	867.446195	0
0	89704	868.064436	0
0	89753	868.097242843684	0.039253765076
0	89843	868.682677	0
0	89894	869.300918	0
0	89945	869.919159	0
0	89996	870.5374	0
0	90047	871.155641	0
0	90098	871.773882	0
0	90149	872.392123	0
0	90200	873.010364	0
0	90297	873.233334157728	0.079258177624
0	90342	873.628605	0
0	90393	874.246846	0
0	90444	874.865087	0
0	90495	875.483328	0
0	90546	876.101569	0
0	90597	876.71981	0
0	90648	877.338051	0
0	90699	877.956292	0
0	90751	878.2412026364	0.087126656296
0	90841	878.574533	0
0	90892	879.192774	0
0	90943	879.811015	0
0	90994	880.429256	0
0	91045	881.047497	0
0	91096	881.665738	0
0	91147	882.283979	0
0	91198	882.90222	0
0	91295	883.381897410391	0.05772714536
0	91340	883.520461	0
0	91391	884.138702	0
0	91442	884.756943	0
0	91493	885.375184	0
0	91544	885.993425	0
0	91595	886.611666	0
0	91646	887.229907	0
0	91697	887.848148	0
0	91749	888.405700257201	0.08152999217
0	91839	888.466389	0
0	91890	889.08463	0
0	91941	889.702871	0
0	91992	890.321112	0
0	92043	890.939353	0
0	92094	891.557594	0
0	92145	892.175835	0
0	92196	892.794076	0
0	92247	893.412317	0
0	92344	893.537845365633	0.057912424166
0	92384	893.942770538374	0.006918031311
0	92466	894.030558	0
0	92517	894.648799	0
0	92568	895.26704	0
0	92614	895.512115673619	0.008698337351
0	92696	895.885281	0
0	92747	896.503522	0
0	92793	896.628725489468	0.009636164415
0	92875	897.121763	0
0	92921	897.490085399943	0.008451925577
0	93003	897.740004	0
0	93054	898.358245	0
0	93106	898.549768489911	0.069835548444
0	93196	898.976486	0
0	93247	899.594727	0
0	93298	900.212968	0
0	93349	900.831209	0
0	93400	901.44945	0
0	93451	902.067691	0
0	93502	902.685932	0
0	93553	903.304173	0
0	93650	903.698847430629	0.053038950458
0	93695	903.922414	0
0	93746	904.540655	0
0	93797	905.158896	0
0	93848	905.777137	0
0	93899	906.395378	0
0	93950	907.013619	0
0	94001	907.63186	0
0	94052	908.250101	0
0	94104	908.718881336437	0.073072856266
0	94194	908.868342	0
0	94245	909.486583	0
0	94296	910.104824	0
0	94347	910.723065	0
0	94393	911.208019798033	0.007652729744
0	94475	911.341306	0
0	94526	911.959547	0
0	94577	912.577788	0
0	94628	913.196029	0
0	94682	913.81427	0
0	94776	913.957193056264	0.062273556142
0	94821	914.432511	0
0	94872	915.050752	0
0	94923	915.668993	0
0	94974	916.287234	0
0	95025	916.905475	0
0	95076	917.523716	0
0	95127	918.141957	0
0	95178	918.760198	0
0	95230	918.976071756594	0.081152256472
0	95320	919.378439	0
0	95371	919.99668	0
0	95422	920.614921	0
0	95473	921.233162	0
0	95524	921.851403	0
0	95575	922.469644	0
0	95626	923.087885	0
0	95677	923.706126	0
0	95774	924.091452436318	0.061043698087
0	95819	924.324367	0
0	95870	924.942608	0
0	95921	925.560849	0
0	95972	926.17909	0
0	96023	926.797331	0
0	96074	927.415572	0
0	96125	928.033813	0
0	96176	928.652054	0
0	96222	928.775706189323	0.007484837812
0	96305	929.10640554378	0.075996805549
0	96395	929.270295	0
0	96446	929.888536	0
0	96497	930.506777	0
0	96548	931.125018	0
0	96599	931.743259	0
0	96650	932.3615	0
0	96701	932.979741	0
0	96752	933.597982	0
0	96851	934.216223	0
0	96900	934.293994940503	0.097403538977
0	96945	934.834464	0
0	96996	935.452705	0
0	97047	936.070946	0
0	97098	936.689187	0
0	97149	937.307428	0
0	97200	937.925669	0
0	97251	938.54391	0
0	97302	939.162151	0
0	97354	939.281453773438	0.084862371912
0	97444	939.780392	0
0	97495	940.398633	0
0	97546	941.016874	0
0	97597	941.635115	0
0	97648	942.253356	0
0	97699	942.871597	0
0	97750	943.489838	0
0	97801	944.108079	0
0	97898	944.434920163123	0.047518440545
0	97943	944.72632	0
0	97994	945.344561	0
0	98045	945.962802	0
0	98096	946.581043	0
0	98147	947.199284	0
0	98198	947.817525	0
0	98249	948.435766	0
0	98300	949.054007	0
0	98352	949.672248	0
0	98403	950.290489	0
0	98454	950.90873	0
0	98505	951.526971	0
0	98556	952.145212	0
0	98607	952.763453	0
0	98658	953.381694	0
0	98709	953.999935	0
0	98760	954.618176	0
0	98811	955.236417	0
0	98862	955.854658	0
0	98913	956.472899	0
0	98964	957.09114	0
0	99015	957.709381	0
0	99066	958.327622	0
0	99117	958.945863	0
0	99169	959.4073236294	0.019921906822
0	99259	959.564104	0
0	99310	960.182345	0
0	99361	960.800586	0
0	99412	961.418827	0
0	99463	962.037068	0
0	99514	962.655309	0
0	99565	963.27355	0
0	99616	963.891791	0
0	99670	964.510032	0
0	99764	964.630701755516	0.066513505654
0	99809	965.128273	0
0	99860	965.746514	0
0	99911	966.364755	0
0	99962	966.982996	0
0	100013	967.601237	0
0	100059	967.942111877825	0.006259370762
0	100141	968.219478	0
0	100192	968.837719	0
0	100243	969.45596	0
0	100289	969.511841172018	0.00842383575
0	100372	969.603767278518	0.039579028656
0	100462	970.074201	0
0	100508	970.627148834602	0.008059509549
0	100590	970.692442	0
0	100641	971.310683	0
0	100687	971.488675287092	0.007041812726
0	100769	971.928924	0
0	100820	972.547165	0
0	100871	973.165406	0
0	100922	973.783647	0
0	100973	974.401888	0
0	101070	974.684560527448	0.019802921021
0	101115	975.020129	0
0	101166	975.63837	0
0	101217	976.256611	0
0	101268	976.874852	0
0	101319	977.493093	0
0	101370	978.111334	0
0	101421	978.729575	0
0	101472	979.347816	0
0	101524	979.724639448883	0.059881842456
0	101614	979.966057	0
0	101665	980.584298	0
0	101716	981.202539	0
0	101767	981.82078	0
0	101818	982.439021	0
0	101869	983.057262	0
0	101920	983.675503	0
0	101971	984.293744	0
0	102068	984.891091728346	0.073429066272
0	102113	984.911985	0
0	102159	985.208893154927	0.008526086638
0	102241	985.530226	0
0	102292	986.148467	0
0	102343	986.766708	0
0	102394	987.384949	0
0	102445	988.00319	0
0	102496	988.621431	0
0	102547	989.239672	0
0	102599	989.83903131349	0.021368651416
0	102646	989.857913	0
0	102740	990.476154	0
0	102791	991.094395	0
0	102842	991.712636	0
0	102893	992.330877	0
0	102944	992.949118	0
0	102995	993.567359	0
0	103046	994.1856	0
0	103097	994.803841	0
0	103194	994.990630042137	0.084815200188
0	103239	995.422082	0
0	103290	996.040323	0
0	103341	996.658564	0
0	103392	997.276805	0
0	103443	997.895046	0
0	103494	998.513287	0
0	103545	999.131528	0
0	103596	999.749769	0
0	103648	999.929464480702	0.023649638753
1	38	5	2
1	45	5.000768	1
1	160	5.042548915091	2
1	176	5.044308915091	1
1	304	5.113476650552	2
1	311	5.113892650552	1
1	353	5.125400283151	2
1	379	5.125816283151	1
1	442	5.214483320684	2
1	449	5.216243320684	1
1	559	5.283763360111	2
1	566	5.284179360111	1
1	638	5.309910428258	2
1	645	5.310326428258	1
1	714	5.405037014789	2
1	721	5.406797014789	1
1	830	5.473546630615	2
1	837	5.473962630615	1
1	870	5.485255821931	2
1	886	5.485671821931	1
1	935	5.618241	2
1	942	5.619009	1
1	1018	5.66144130001	2
1	1025	5.66320130001	1
1	1134	5.729267512373	2
1	1141	5.729683512373	1
1	1173	5.738145784731	2
1	1180	5.738561784731	1
1	1252	5.943155200972	2
1	1259	5.943635200972	1
1	1334	6.236482	2
1	1341	6.23725	1
1	1385	6.854723	2
1	1392	6.855491	1
1	1436	7.472964	2
1	1443	7.473732	1
1	1482	7.510728839117	2
1	1489	7.511208839117	1
1	1564	8.091205	2
1	1571	8.091973	1
1	1610	8.628104447217	2
1	1617	8.628584447217	1
1	1692	8.709446	2
1	1699	8.710214	1
1	1743	9.327687	2
1	1750	9.328455	1
1	1789	9.490585928173	2
1	1796	9.491065928173	1
1	1871	9.945928	2
1	1878	9.946696	1
1	1922	10.564169	2
1	1929	10.564937	1
1	1973	11.18241	2
1	1980	11.183178	1
1	2024	11.800651	2
1	2031	11.801419	1
1	2075	12.418892	2
1	2082	12.41966	1
1	2126	13.037133	2
1	2133	13.037901	1
1	2177	13.655374	2
1	2184	13.656142	1
1	2228	14.273615	2
1	2235	14.274383	1
1	2279	14.891856	2
1	2286	14.892624	1
1	2330	15.510097	2
1	2337	15.510865	1
1	2381	16.128338	2
1	2388	16.129106	1
1	2432	16.746579	2
1	2439	16.747347	1
1	2483	17.36482	2
1	2490	17.365588	1
1	2534	17.983061	2
1	2541	17.983829	1
1	2585	18.601302	2
1	2592	18.60207	1
1	2636	19.219543	2
1	2643	19.220311	1
1	2687	19.837784	2
1	2694	19.838552	1
1	2736	20.114585727858	2
1	2743	20.115001727858	1
1	2855	20.15550695633	2
1	2862	20.15726695633	1
1	2962	20.456025	2
1	2969	20.456793	1
1	3067	20.474914940739	2
1	3074	20.475330940739	1
1	3148	20.499516988604	2
1	3155	20.499932988604	1
1	3188	20.510959380297	2
1	3204	20.511375380297	1
1	3253	21.074266	2
1	3260	21.075034	1
1	3304	21.692507	2
1	3311	21.693275	1
1	3355	22.310748	2
1	3362	22.311516	1
1	3406	22.928989	2
1	3413	22.929757	1
1	3452	23.208988530448	2
1	3459	23.209468530448	1
1	3534	23.54723	2
1	3541	23.547998	1
1	3585	24.165471	2
1	3592	24.166239	1
1	3636	24.783712	2
1	3643	24.78448	1
1	3687	25.401953	2
1	3694	25.402721	1
1	3738	26.020194	2
1	3745	26.020962	1
1	3789	26.638435	2
1	3796	26.639203	1
1	3840	27.256676	2
1	3847	27.257444	1
1	3891	27.874917	2
1	3898	27.875685	1
1	3942	28.493158	2
1	3949	28.493926	1
1	3993	29.111399	2
1	4000	29.112167	1
1	4044	29.72964	2
1	4051	29.730408	1
1	4095	30.347881	2
1	4102	30.348649	1
1	4146	30.966122	2
1	4153	30.96689	1
1	4197	31.584363	2
1	4204	31.585131	1
1	4248	32.202604	2
1	4255	32.203372	1
1	4299	32.820845	2
1	4306	32.821613	1
1	4350	33.439086	2
1	4357	33.439854	1
1	4401	34.057327	2
1	4408	34.058095	1
1	4452	34.675568	2
1	4459	34.676336	1
1	4500	35.111428281478	2
1	4507	35.111844281478	1
1	4581	35.151152235892	2
1	4588	35.152912235892	1
1	4706	35.218874799068	2
1	4722	35.219290799068	1
1	4848	35.25202935376	2
1	4855	35.25244535376	1
1	4924	35.273956037779	2
1	4931	35.274372037779	1
1	5008	35.293809	2
1	5015	35.294577	1
1	5054	35.312645317171	2
1	5061	35.313061317171	1
1	5094	35.481615869785	2
1	5101	35.482031869785	1
1	5175	35.501577453701	2
1	5183	35.501993453701	1
1	5216	35.511390815165	2
1	5223	35.511806815165	1
1	5338	35.91205	2
1	5345	35.912818	1
1	5389	36.530291	2
1	5396	36.531059	1
1	5440	37.148532	2
1	5447	37.1493	1
1	5491	37.766773	2
1	5498	37.767541	1
1	5542	38.385014	2
1	5549	38.385782	1
1	5593	39.003255	2
1	5600	39.004023	1
1	5644	39.621496	2
1	5651	39.622264	1
1	5695	40.239737	2
1	5702	40.240505	1
1	5741	40.778425639422	2
1	5748	40.778905639422	1
1	5823	40.857978	2
1	5830	40.858746	1
1	5874	41.476219	2
1	5881	41.476987	1
1	5925	42.09446	2
1	5932	42.095228	1
1	5976	42.712701	2
1	5983	42.713469	1
1	6027	43.330942	2
1	6034	43.33171	1
1	6078	43.949183	2
1	6085	43.949951	1
1	6129	44.567424	2
1	6136	44.568192	1
1	6180	45.185665	2
1	6187	45.186433	1
1	6231	45.803906	2
1	6238	45.804674	1
1	6282	46.422147	2
1	6289	46.422915	1
1	6333	47.040388	2
1	6340	47.041156	1
1	6384	47.658629	2
1	6391	47.659397	1
1	6435	48.27687	2
1	6442	48.277638	1
1	6486	48.895111	2
1	6493	48.895879	1
1	6537	49.513352	2
1	6544	49.51412	1
1	6589	50.131593	2
1	6596	50.132361	1
1	6672	50.160045588646	2
1	6679	50.160461588646	1
1	6751	50.182421474248	2
1	6758	50.182837474248	1
1	6795	50.749834	2
1	6802	50.750602	1
1	6846	51.368075	2
1	6853	51.368843	1
1	6897	51.986316	2
1	6904	51.987084	1
1	6948	52.604557	2
1	6955	52.605325	1
1	6999	53.222798	2
1	7006	53.223566	1
1	7050	53.841039	2
1	7057	53.841807	1
1	7101	54.45928	2
1	7108	54.460048	1
1	7152	55.077521	2
1	7159	55.078289	1
1	7203	55.695762	2
1	7210	55.69653	1
1	7254	56.314003	2
1	7261	56.314771	1
1	7305	56.932244	2
1	7312	56.933012	1
1	7356	57.550485	2
1	7363	57.551253	1
1	7407	58.168726	2
1	7414	58.169494	1
1	7458	58.786967	2
1	7465	58.787735	1
1	7509	59.405208	2
1	7516	59.405976	1
1	7560	60.023449	2
1	7567	60.024217	1
1	7611	60.64169	2
1	7618	60.642458	1
1	7662	61.259931	2
1	7669	61.260699	1
1	7713	61.878172	2
1	7720	61.87894	1
1	7764	62.496413	2
1	7771	62.497181	1
1	7815	63.114654	2
1	7822	63.115422	1
1	7866	63.732895	2
1	7873	63.733663	1
1	7917	64.351136	2
1	7924	64.351904	1
1	7968	64.969377	2
1	7975	64.970145	1
1	8019	65.587618	2
1	8026	65.588386	1
1	8070	66.205859	2
1	8077	66.206627	1
1	8121	66.8241	2
1	8128	66.824868	1
1	8172	67.442341	2
1	8179	67.443109	1
1	8223	68.060582	2
1	8230	68.06135	1
1	8274	68.678823	2
1	8281	68.679591	1
1	8325	69.297064	2
1	8332	69.297832	1
1	8376	69.915305	2
1	8383	69.916073	1
1	8427	70.533546	2
1	8434	70.534314	1
1	8478	71.151787	2
1	8485	71.152555	1
1	8529	71.770028	2
1	8536	71.770796	1
1	8580	72.388269	2
1	8587	72.389037	1
1	8631	73.00651	2
1	8638	73.007278	1
1	8682	73.624751	2
1	8689	73.625519	1
1	8733	74.242992	2
1	8740	74.24376	1
1	8784	74.861233	2
1	8791	74.862001	1
1	8835	75.479474	2
1	8842	75.480242	1
1	8886	76.097715	2
1	8893	76.098483	1
1	8937	76.715956	2
1	8944	76.716724	1
1	8988	77.334197	2
1	8995	77.334965	1
1	9039	77.952438	2
1	9046	77.953206	1
1	9090	78.570679	2
1	9097	78.571447	1
1	9141	79.18892	2
1	9148	79.189688	1
1	9192	79.807161	2
1	9199	79.807929	1
1	9238	79.942124616159	2
1	9245	79.942604616159	1
1	9320	80.425402	2
1	9327	80.42617	1
1	9371	81.043643	2
1	9378	81.044411	1
1	9417	81.511235709124	2
1	9424	81.511715709124	1
1	9499	81.661884	2
1	9506	81.662652	1
1	9550	82.280125	2
1	9557	82.280893	1
1	9596	82.627134393676	2
1	9603	82.627614393676	1
1	9678	82.898366	2
1	9685	82.899134	1
1	9724	83.490946904388	2
1	9731	83.491426904388	1
1	9806	83.516607	2
1	9813	83.517375	1
1	9857	84.134848	2
1	9864	84.135616	1
1	9908	84.753089	2
1	9915	84.753857	1
1	9959	85.37133	2
1	9966	85.372098	1
1	10010	85.989571	2
1	10017	85.990339	1
1	10061	86.607812	2
1	10068	86.60858	1
1	10112	87.226053	2
1	10119	87.226821	1
1	10163	87.844294	2
1	10170	87.845062	1
1	10214	88.462535	2
1	10221	88.463303	1
1	10265	89.080776	2
1	10272	89.081544	1
1	10316	89.699017	2
1	10323	89.699785	1
1	10367	90.317258	2
1	10374	90.318026	1
1	10418	90.935499	2
1	10425	90.936267	1
1	10469	91.55374	2
1	10476	91.554508	1
1	10520	92.171981	2
1	10527	92.172749	1
1	10571	92.790222	2
1	10578	92.79099	1
1	10622	93.408463	2
1	10629	93.409231	1
1	10673	94.026704	2
1	10680	94.027472	1
1	10724	94.644945	2
1	10731	94.645713	1
1	10775	95.263186	2
1	10782	95.263954	1
1	10826	95.881427	2
1	10833	95.882195	1
1	10877	96.499668	2
1	10884	96.500436	1
1	10928	97.117909	2
1	10935	97.118677	1
1	10974	97.210062197658	2
1	10981	97.210542197658	1
1	11056	97.73615	2
1	11063	97.736918	1
1	11107	98.354391	2
1	11114	98.355159	1
1	11158	98.972632	2
1	11165	98.9734	1
1	11209	99.590873	2
1	11216	99.591641	1
1	11260	100.209114	2
1	11267	100.209882	1
1	11311	100.827355	2
1	11318	100.828123	1
1	11362	101.445596	2
1	11369	101.446364	1
1	11413	102.063837	2
1	11420	102.064605	1
1	11464	102.682078	2
1	11471	102.682846	1
1	11515	103.300319	2
1	11522	103.301087	1
1	11566	103.91856	2
1	11573	103.919328	1
1	11617	104.536801	2
1	11624	104.537569	1
1	11668	105.155042	2
1	11675	105.15581	1
1	11719	105.773283	2
1	11726	105.774051	1
1	11770	106.391524	2
1	11777	106.392292	1
1	11821	107.009765	2
1	11828	107.010533	1
1	11872	107.628006	2
1	11879	107.628774	1
1	11923	108.246247	2
1	11930	108.247015	1
1	11974	108.864488	2
1	11981	108.865256	1
1	12025	109.482729	2
1	12032	109.483497	1
1	12076	110.10097	2
1	12083	110.101738	1
1	12127	110.719211	2
1	12134	110.719979	1
1	12178	111.337452	2
1	12185	111.33822	1
1	12229	111.955693	2
1	12236	111.956461	1
1	12280	112.573934	2
1	12287	112.574702	1
1	12331	113.192175	2
1	12338	113.192943	1
1	12382	113.810416	2
1	12389	113.811184	1
1	12433	114.428657	2
1	12440	114.429425	1
1	12479	114.777075981951	2
1	12486	114.777555981951	1
1	12561	115.046898	2
1	12568	115.047666	1
1	12612	115.665139	2
1	12619	115.665907	1
1	12663	116.28338	2
1	12670	116.284148	1
1	12714	116.901621	2
1	12721	116.902389	1
1	12765	117.519862	2
1	12772	117.52063	1
1	12816	118.138103	2
1	12823	118.138871	1
1	12867	118.756344	2
1	12874	118.757112	1
1	12918	119.374585	2
1	12925	119.375353	1
1	12969	119.992826	2
1	12976	119.993594	1
1	13020	120.611067	2
1	13027	120.611835	1
1	13071	121.229308	2
1	13078	121.230076	1
1	13122	121.847549	2
1	13129	121.848317	1
1	13173	122.46579	2
1	13180	122.466558	1
1	13224	123.084031	2
1	13231	123.084799	1
1	13275	123.702272	2
1	13282	123.70304	1
1	13326	124.320513	2
1	13333	124.321281	1
1	13377	124.938754	2
1	13384	124.939522	1
1	13428	125.556995	2
1	13435	125.557763	1
1	13479	126.175236	2
1	13486	126.176004	1
1	13530	126.793477	2
1	13537	126.794245	1
1	13581	127.411718	2
1	13588	127.412486	1
1	13632	128.029959	2
1	13639	128.030727	1
1	13683	128.6482	2
1	13690	128.648968	1
1	13734	129.266441	2
1	13741	129.267209	1
1	13785	129.884682	2
1	13792	129.88545	1
1	13836	130.502923	2
1	13843	130.503691	1
1	13887	131.121164	2
1	13894	131.121932	1
1	13938	131.739405	2
1	13945	131.740173	1
1	13989	132.357646	2
1	13996	132.358414	1
1	14040	132.975887	2
1	14047	132.976655	1
1	14091	133.594128	2
1	14098	133.594896	1
1	14142	134.212369	2
1	14149	134.213137	1
1	14193	134.83061	2
1	14200	134.831378	1
1	14244	135.448851	2
1	14251	135.449619	1
1	14295	136.067092	2
1	14302	136.06786	1
1	14346	136.685333	2
1	14353	136.686101	1
1	14397	137.303574	2
1	14404	137.304342	1
1	14448	137.921815	2
1	14455	137.922583	1
1	14499	138.540056	2
1	14506	138.540824	1
1	14550	139.158297	2
1	14557	139.159065	1
1	14601	139.776538	2
1	14608	139.777306	1
1	14652	140.394779	2
1	14659	140.395547	1
1	14703	141.01302	2
1	14710	141.013788	1
1	14754	141.631261	2
1	14761	141.632029	1
1	14805	142.249502	2
1	14812	142.25027	1
1	14856	142.867743	2
1	14863	142.868511	1
1	14907	143.485984	2
1	14914	143.486752	1
1	14958	144.104225	2
1	14965	144.104993	1
1	15009	144.722466	2
1	15016	144.723234	1
1	15060	145.340707	2
1	15067	145.341475	1
1	15111	145.958948	2
1	15118	145.959716	1
1	15162	146.577189	2
1	15169	146.577957	1
1	15213	147.19543	2
1	15220	147.196198	1
1	15264	147.813671	2
1	15271	147.814439	1
1	15315	148.431912	2
1	15322	148.43268	1
1	15366	149.050153	2
1	15373	149.050921	1
1	15417	149.668394	2
1	15424	149.669162	1
1	15468	150.286635	2
1	15475	150.287403	1
1	15519	150.904876	2
1	15526	150.905644	1
1	15570	151.523117	2
1	15577	151.523885	1
1	15621	152.141358	2
1	15628	152.142126	1
1	15672	152.759599	2
1	15679	152.760367	1
1	15723	153.37784	2
1	15730	153.378608	1
1	15769	153.94264435973	2
1	15776	153.94312435973	1
1	15851	153.996081	2
1	15858	153.996849	1
1	15902	154.614322	2
1	15909	154.61509	1
1	15953	155.232563	2
1	15960	155.233331	1
1	15999	155.513587877643	2
1	16006	155.514067877643	1
1	16081	155.850804	2
1	16088	155.851572	1
1	16132	156.469045	2
1	16139	156.469813	1
1	16178	156.625325680293	2
1	16185	156.625805680293	1
1	16260	157.087286	2
1	16267	157.088054	1
1	16306	157.488193214836	2
1	16313	157.488673214836	1
1	16388	157.705527	2
1	16395	157.706295	1
1	16439	158.323768	2
1	16446	158.324536	1
1	16490	158.942009	2
1	16497	158.942777	1
1	16541	159.56025	2
1	16548	159.561018	1
1	16592	160.178491	2
1	16599	160.179259	1
1	16643	160.796732	2
1	16650	160.7975	1
1	16694	161.414973	2
1	16701	161.415741	1
1	16745	162.033214	2
1	16752	162.033982	1
1	16796	162.651455	2
1	16803	162.652223	1
1	16847	163.269696	2
1	16854	163.270464	1
1	16898	163.887937	2
1	16905	163.888705	1
1	16949	164.506178	2
1	16956	164.506946	1
1	17000	165.124419	2
1	17007	165.125187	1
1	17051	165.74266	2
1	17058	165.743428	1
1	17102	166.360901	2
1	17109	166.361669	1
1	17153	166.979142	2
1	17160	166.97991	1
1	17204	167.597383	2
1	17211	167.598151	1
1	17255	168.215624	2
1	17262	168.216392	1
1	17306	168.833865	2
1	17313	168.834633	1
1	17357	169.452106	2
1	17364	169.452874	1
1	17408	170.070347	2
1	17415	170.071115	1
1	17459	170.688588	2
1	17466	170.689356	1
1	17505	171.210656477836	2
1	17512	171.211136477836	1
1	17587	171.306829	2
1	17594	171.307597	1
1	17638	171.92507	2
1	17645	171.925838	1
1	17689	172.543311	2
1	17696	172.544079	1
1	17740	173.161552	2
1	17747	173.16232	1
1	17791	173.779793	2
1	17798	173.780561	1
1	17842	174.398034	2
1	17849	174.398802	1
1	17893	175.016275	2
1	17900	175.017043	1
1	17944	175.634516	2
1	17951	175.635284	1
1	17995	176.252757	2
1	18002	176.253525	1
1	18046	176.870998	2
1	18053	176.871766	1
1	18097	177.489239	2
1	18104	177.490007	1
1	18148	178.10748	2
1	18155	178.108248	1
1	18199	178.725721	2
1	18206	178.726489	1
1	18250	179.343962	2
1	18257	179.34473	1
1	18301	179.962203	2
1	18308	179.962971	1
1	18352	180.580444	2
1	18359	180.581212	1
1	18403	181.198685	2
1	18410	181.199453	1
1	18454	181.816926	2
1	18461	181.817694	1
1	18505	182.435167	2
1	18512	182.435935	1
1	18556	183.053408	2
1	18563	183.054176	1
1	18607	183.671649	2
1	18614	183.672417	1
1	18658	184.28989	2
1	18665	184.290658	1
1	18709	184.908131	2
1	18716	184.908899	1
1	18760	185.526372	2
1	18767	185.52714	1
1	18811	186.144613	2
1	18818	186.145381	1
1	18862	186.762854	2
1	18869	186.763622	1
1	18913	187.381095	2
1	18920	187.381863	1
1	18964	187.999336	2
1	18971	188.000104	1
1	19015	188.617577	2
1	19022	188.618345	1
1	19061	188.774555121392	2
1	19068	188.775035121392	1
1	19143	189.235818	2
1	19150	189.236586	1
1	19194	189.854059	2
1	19201	189.854827	1
1	19245	190.4723	2
1	19252	190.473068	1
1	19296	191.090541	2
1	19303	191.091309	1
1	19347	191.708782	2
1	19354	191.70955	1
1	19398	192.327023	2
1	19405	192.327791	1
1	19449	192.945264	2
1	19456	192.946032	1
1	19500	193.563505	2
1	19507	193.564273	1
1	19551	194.181746	2
1	19558	194.182514	1
1	19602	194.799987	2
1	19609	194.800755	1
1	19653	195.418228	2
1	19660	195.418996	1
1	19704	196.036469	2
1	19711	196.037237	1
1	19755	196.65471	2
1	19762	196.655478	1
1	19806	197.272951	2
1	19813	197.273719	1
1	19857	197.891192	2
1	19864	197.89196	1
1	19908	198.509433	2
1	19915	198.510201	1
1	19959	199.127674	2
1	19966	199.128442	1
1	20010	199.745915	2
1	20017	199.746683	1
1	20061	200.364156	2
1	20068	200.364924	1
1	20112	200.982397	2
1	20119	200.983165	1
1	20163	201.600638	2
1	20170	201.601406	1
1	20214	202.218879	2
1	20221	202.219647	1
1	20265	202.83712	2
1	20272	202.837888	1
1	20316	203.455361	2
1	20323	203.456129	1
1	20367	204.073602	2
1	20374	204.07437	1
1	20418	204.691843	2
1	20425	204.692611	1
1	20469	205.310084	2
1	20476	205.310852	1
1	20520	205.928325	2
1	20527	205.929093	1
1	20571	206.546566	2
1	20578	206.547334	1
1	20622	207.164807	2
1	20629	207.165575	1
1	20673	207.783048	2
1	20680	207.783816	1
1	20724	208.401289	2
1	20731	208.402057	1
1	20775	209.01953	2
1	20782	209.020298	1
1	20826	209.637771	2
1	20833	209.638539	1
1	20877	210.256012	2
1	20884	210.25678	1
1	20928	210.874253	2
1	20935	210.875021	1
1	20979	211.492494	2
1	20986	211.493262	1
1	21030	212.110735	2
1	21037	212.111503	1
1	21081	212.728976	2
1	21088	212.729744	1
1	21132	213.347217	2
1	21139	213.347985	1
1	21183	213.965458	2
1	21190	213.966226	1
1	21234	214.583699	2
1	21241	214.584467	1
1	21285	215.20194	2
1	21292	215.202708	1
1	21336	215.820181	2
1	21343	215.820949	1
1	21387	216.438422	2
1	21394	216.43919	1
1	21438	217.056663	2
1	21445	217.057431	1
1	21489	217.674904	2
1	21496	217.675672	1
1	21540	218.293145	2
1	21547	218.293913	1
1	21591	218.911386	2
1	21598	218.912154	1
1	21642	219.529627	2
1	21649	219.530395	1
1	21693	220.147868	2
1	21700	220.148636	1
1	21744	220.766109	2
1	21751	220.766877	1
1	21795	221.38435	2
1	21802	221.385118	1
1	21846	222.002591	2
1	21853	222.003359	1
1	21897	222.620832	2
1	21904	222.6216	1
1	21948	223.239073	2
1	21955	223.239841	1
1	21999	223.857314	2
1	22006	223.858082	1
1	22050	224.475555	2
1	22057	224.476323	1
1	22101	225.093796	2
1	22108	225.094564	1
1	22152	225.712037	2
1	22159	225.712805	1
1	22203	226.330278	2
1	22210	226.331046	1
1	22254	226.948519	2
1	22261	226.949287	1
1	22305	227.56676	2
1	22312	227.567528	1
1	22351	227.94393410974	2
1	22358	227.94441410974	1
1	22433	228.185001	2
1	22440	228.185769	1
1	22484	228.803242	2
1	22491	228.80401	1
1	22535	229.421483	2
1	22542	229.422251	1
1	22581	229.509502417768	2
1	22588	229.509982417768	1
1	22663	230.039724	2
1	22670	230.040492	1
1	22709	230.626845193531	2
1	22716	230.627325193531	1
1	22791	230.657965	2
1	22798	230.658733	1
1	22842	231.276206	2
1	22849	231.276974	1
1	22888	231.490241128498	2
1	22895	231.490721128498	1
1	22970	231.894447	2
1	22977	231.895215	1
1	23021	232.512688	2
1	23028	232.513456	1
1	23072	233.130929	2
1	23079	233.131697	1
1	23123	233.74917	2
1	23130	233.749938	1
1	23174	234.367411	2
1	23181	234.368179	1
1	23225	234.985652	2
1	23232	234.98642	1
1	23276	235.603893	2
1	23283	235.604661	1
1	23327	236.222134	2
1	23334	236.222902	1
1	23378	236.840375	2
1	23385	236.841143	1
1	23429	237.458616	2
1	23436	237.459384	1
1	23480	238.076857	2
1	23487	238.077625	1
1	23531	238.695098	2
1	23538	238.695866	1
1	23582	239.313339	2
1	23589	239.314107	1
1	23633	239.93158	2
1	23640	239.932348	1
1	23684	240.549821	2
1	23691	240.550589	1
1	23735	241.168062	2
1	23742	241.16883	1
1	23786	241.786303	2
1	23793	241.787071	1
1	23837	242.404544	2
1	23844	242.405312	1
1	23888	243.022785	2
1	23895	243.023553	1
1	23939	243.641026	2
1	23946	243.641794	1
1	23990	244.259267	2
1	23997	244.260035	1
1	24041	244.877508	2
1	24048	244.878276	1
1	24087	245.206903982978	2
1	24094	245.207383982978	1
1	24169	245.495749	2
1	24176	245.496517	1
1	24220	246.11399	2
1	24227	246.114758	1
1	24271	246.732231	2
1	24278	246.732999	1
1	24322	247.350472	2
1	24329	247.35124	1
1	24373	247.968713	2
1	24380	247.969481	1
1	24424	248.586954	2
1	24431	248.587722	1
1	24475	249.205195	2
1	24482	249.205963	1
1	24526	249.823436	2
1	24533	249.824204	1
1	24577	250.441677	2
1	24584	250.442445	1
1	24628	251.059918	2
1	24635	251.060686	1
1	24679	251.678159	2
1	24686	251.678927	1
1	24730	252.2964	2
1	24737	252.297168	1
1	24781	252.914641	2
1	24788	252.915409	1
1	24832	253.532882	2
1	24839	253.53365	1
1	24883	254.151123	2
1	24890	254.151891	1
1	24934	254.769364	2
1	24941	254.770132	1
1	24985	255.387605	2
1	24992	255.388373	1
1	25036	256.005846	2
1	25043	256.006614	1
1	25087	256.624087	2
1	25094	256.624855	1
1	25138	257.242328	2
1	25145	257.243096	1
1	25189	257.860569	2
1	25196	257.861337	1
1	25240	258.47881	2
1	25247	258.479578	1
1	25291	259.097051	2
1	25298	259.097819	1
1	25342	259.715292	2
1	25349	259.71606	1
1	25393	260.333533	2
1	25400	260.334301	1
1	25444	260.951774	2
1	25451	260.952542	1
1	25495	261.570015	2
1	25502	261.570783	1
1	25546	262.188256	2
1	25553	262.189024	1
1	25592	262.777251145407	2
1	25599	262.777731145407	1
1	25674	262.806497	2
1	25681	262.807265	1
1	25725	263.424738	2
1	25732	263.425506	1
1	25776	264.042979	2
1	25783	264.043747	1
1	25827	264.66122	2
1	25834	264.661988	1
1	25878	265.279461	2
1	25885	265.280229	1
1	25929	265.897702	2
1	25936	265.89847	1
1	25980	266.515943	2
1	25987	266.516711	1
1	26031	267.134184	2
1	26038	267.134952	1
1	26082	267.752425	2
1	26089	267.753193	1
1	26133	268.370666	2
1	26140	268.371434	1
1	26184	268.988907	2
1	26191	268.989675	1
1	26235	269.607148	2
1	26242	269.607916	1
1	26286	270.225389	2
1	26293	270.226157	1
1	26337	270.84363	2
1	26344	270.844398	1
1	26388	271.461871	2
1	26395	271.462639	1
1	26439	272.080112	2
1	26446	272.08088	1
1	26490	272.698353	2
1	26497	272.699121	1
1	26541	273.316594	2
1	26548	273.317362	1
1	26592	273.934835	2
1	26599	273.935603	1
1	26643	274.553076	2
1	26650	274.553844	1
1	26694	275.171317	2
1	26701	275.172085	1
1	26745	275.789558	2
1	26752	275.790326	1
1	26796	276.407799	2
1	26803	276.408567	1
1	26847	277.02604	2
1	26854	277.026808	1
1	26898	277.644281	2
1	26905	277.645049	1
1	26949	278.262522	2
1	26956	278.26329	1
1	27000	278.880763	2
1	27007	278.881531	1
1	27051	279.499004	2
1	27058	279.499772	1
1	27102	280.117245	2
1	27109	280.118013	1
1	27153	280.735486	2
1	27160	280.736254	1
1	27204	281.353727	2
1	27211	281.354495	1
1	27255	281.971968	2
1	27262	281.972736	1
1	27306	282.590209	2
1	27313	282.590977	1
1	27357	283.20845	2
1	27364	283.209218	1
1	27408	283.826691	2
1	27415	283.827459	1
1	27459	284.444932	2
1	27466	284.4457	1
1	27510	285.063173	2
1	27517	285.063941	1
1	27561	285.681414	2
1	27568	285.682182	1
1	27612	286.299655	2
1	27619	286.300423	1
1	27663	286.917896	2
1	27670	286.918664	1
1	27714	287.536137	2
1	27721	287.536905	1
1	27765	288.154378	2
1	27772	288.155146	1
1	27816	288.772619	2
1	27823	288.773387	1
1	27867	289.39086	2
1	27874	289.391628	1
1	27918	290.009101	2
1	27925	290.009869	1
1	27969	290.627342	2
1	27976	290.62811	1
1	28020	291.245583	2
1	28027	291.246351	1
1	28071	291.863824	2
1	28078	291.864592	1
1	28122	292.482065	2
1	28129	292.482833	1
1	28173	293.100306	2
1	28180	293.101074	1
1	28224	293.718547	2
1	28231	293.719315	1
1	28275	294.336788	2
1	28282	294.337556	1
1	28326	294.955029	2
1	28333	294.955797	1
1	28377	295.57327	2
1	28384	295.574038	1
1	28428	296.191511	2
1	28435	296.192279	1
1	28479	296.809752	2
1	28486	296.81052	1
1	28530	297.427993	2
1	28537	297.428761	1
1	28581	298.046234	2
1	28588	298.047002	1
1	28632	298.664475	2
1	28639	298.665243	1
1	28683	299.282716	2
1	28690	299.283484	1
1	28734	299.900957	2
1	28741	299.901725	1
1	28782	300.007281625682	2
1	28789	300.008273625682	1
1	28866	300.08933824013	2
1	28873	300.09215424013	1
1	28906	300.101583134275	2
1	28913	300.101999134275	1
1	29032	300.519198	2
1	29039	300.519966	1
1	29083	301.137439	2
1	29090	301.138207	1
1	29134	301.75568	2
1	29141	301.756448	1
1	29180	301.9435906908	2
1	29187	301.9440706908	1
1	29262	302.373921	2
1	29269	302.374689	1
1	29313	302.992162	2
1	29320	302.99293	1
1	29359	303.513267459317	2
1	29366	303.513747459317	1
1	29441	303.610403	2
1	29448	303.611171	1
1	29492	304.228644	2
1	29499	304.229412	1
1	29538	304.628179513136	2
1	29545	304.628659513136	1
1	29620	304.846885	2
1	29627	304.847653	1
1	29717	305.18719909045	2
1	29724	305.18774309045	1
1	29762	305.465126	2
1	29769	305.465894	1
1	29808	305.489112766216	2
1	29815	305.489592766216	1
1	29890	306.083367	2
1	29897	306.084135	1
1	29941	306.701608	2
1	29948	306.702376	1
1	29992	307.319849	2
1	29999	307.320617	1
1	30043	307.93809	2
1	30050	307.938858	1
1	30094	308.556331	2
1	30101	308.557099	1
1	30145	309.174572	2
1	30152	309.17534	1
1	30196	309.792813	2
1	30203	309.793581	1
1	30248	310.232473078802	2
1	30255	310.233465078802	1
1	30338	310.411054	2
1	30345	310.411822	1
1	30389	311.029295	2
1	30396	311.030063	1
1	30440	311.647536	2
1	30447	311.648304	1
1	30491	312.265777	2
1	30498	312.266545	1
1	30542	312.884018	2
1	30549	312.884786	1
1	30593	313.502259	2
1	30600	313.503027	1
1	30644	314.1205	2
1	30651	314.121268	1
1	30695	314.738741	2
1	30702	314.739509	1
1	30794	315.356982	2
1	30801	315.35775	1
1	30843	315.405034567923	2
1	30850	315.405578567923	1
1	30888	315.975223	2
1	30895	315.975991	1
1	30939	316.593464	2
1	30946	316.594232	1
1	30990	317.211705	2
1	30997	317.212473	1
1	31041	317.829946	2
1	31048	317.830714	1
1	31092	318.448187	2
1	31099	318.448955	1
1	31143	319.066428	2
1	31150	319.067196	1
1	31189	319.210089980602	2
1	31196	319.210569980602	1
1	31271	319.684669	2
1	31278	319.685437	1
1	31325	320.30291	2
1	31332	320.303678	1
1	31370	320.318860024712	2
1	31377	320.319852024712	1
1	31454	320.378340722137	2
1	31461	320.381156722137	1
1	31495	320.391720886287	2
1	31502	320.392136886287	1
1	31620	320.921151	2
1	31627	320.921919	1
1	31671	321.539392	2
1	31678	321.54016	1
1	31722	322.157633	2
1	31729	322.158401	1
1	31773	322.775874	2
1	31780	322.776642	1
1	31824	323.394115	2
1	31831	323.394883	1
1	31875	324.012356	2
1	31882	324.013124	1
1	31926	324.630597	2
1	31933	324.631365	1
1	31977	325.248838	2
1	31984	325.249606	1
1	32074	325.511531527455	2
1	32081	325.512075527455	1
1	32119	325.867079	2
1	32126	325.867847	1
1	32170	326.48532	2
1	32177	326.486088	1
1	32221	327.103561	2
1	32228	327.104329	1
1	32272	327.721802	2
1	32279	327.72257	1
1	32323	328.340043	2
1	32330	328.340811	1
1	32374	328.958284	2
1	32381	328.959052	1
1	32425	329.576525	2
1	32432	329.577293	1
1	32476	330.194766	2
1	32483	330.195534	1
1	32528	330.490808938378	2
1	32535	330.491800938378	1
1	32618	330.813007	2
1	32625	330.813775	1
1	32669	331.431248	2
1	32676	331.432016	1
1	32720	332.049489	2
1	32727	332.050257	1
1	32771	332.66773	2
1	32778	332.668498	1
1	32822	333.285971	2
1	32829	333.286739	1
1	32873	333.904212	2
1	32880	333.90498	1
1	32924	334.522453	2
1	32931	334.523221	1
1	32975	335.140694	2
1	32982	335.141462	1
1	33072	335.599137890599	2
1	33079	335.599681890599	1
1	33117	335.758935	2
1	33124	335.759703	1
1	33168	336.377176	2
1	33175	336.377944	1
1	33214	336.778311564977	2
1	33221	336.778791564977	1
1	33296	336.995417	2
1	33303	336.996185	1
1	33347	337.613658	2
1	33354	337.614426	1
1	33398	338.231899	2
1	33405	338.232667	1
1	33449	338.85014	2
1	33456	338.850908	1
1	33500	339.468381	2
1	33507	339.469149	1
1	33551	340.086622	2
1	33558	340.08739	1
1	33599	340.55994920947	2
1	33606	340.56094120947	1
1	33683	340.652275719265	2
1	33690	340.655091719265	1
1	33724	340.665469461839	2
1	33731	340.665885461839	1
1	33768	340.704863	2
1	33775	340.705631	1
1	33900	341.323104	2
1	33907	341.323872	1
1	33951	341.941345	2
1	33958	341.942113	1
1	34002	342.559586	2
1	34009	342.560354	1
1	34053	343.177827	2
1	34060	343.178595	1
1	34104	343.796068	2
1	34111	343.796836	1
1	34155	344.414309	2
1	34162	344.415077	1
1	34206	345.03255	2
1	34213	345.033318	1
1	34257	345.650791	2
1	34264	345.651559	1
1	34354	345.800158896321	2
1	34361	345.800702896321	1
1	34399	346.269032	2
1	34406	346.2698	1
1	34450	346.887273	2
1	34457	346.888041	1
1	34501	347.505514	2
1	34508	347.506282	1
1	34552	348.123755	2
1	34559	348.124523	1
1	34603	348.741996	2
1	34610	348.742764	1
1	34654	349.360237	2
1	34661	349.361005	1
1	34705	349.978478	2
1	34712	349.979246	1
1	34756	350.596719	2
1	34763	350.597487	1
1	34808	350.840562868303	2
1	34815	350.841554868303	1
1	34898	351.21496	2
1	34905	351.215728	1
1	34949	351.833201	2
1	34956	351.833969	1
1	35000	352.451442	2
1	35007	352.45221	1
1	35051	353.069683	2
1	35058	353.070451	1
1	35102	353.687924	2
1	35109	353.688692	1
1	35153	354.306165	2
1	35160	354.306933	1
1	35204	354.924406	2
1	35211	354.925174	1
1	35255	355.542647	2
1	35262	355.543415	1
1	35352	356.01564363752	2
1	35359	356.01618763752	1
1	35397	356.160888	2
1	35404	356.161656	1
1	35448	356.779129	2
1	35455	356.779897	1
1	35499	357.39737	2
1	35506	357.398138	1
1	35550	358.015611	2
1	35557	358.016379	1
1	35601	358.633852	2
1	35608	358.63462	1
1	35652	359.252093	2
1	35659	359.252861	1
1	35703	359.870334	2
1	35710	359.871102	1
1	35754	360.488575	2
1	35761	360.489343	1
1	35802	360.960496592311	2
1	35809	360.961488592311	1
1	35886	361.025188625951	2
1	35893	361.028004625951	1
1	35926	361.037536909783	2
1	35933	361.037952909783	1
1	36052	361.106816	2
1	36059	361.107584	1
1	36103	361.725057	2
1	36110	361.725825	1
1	36154	362.343298	2
1	36161	362.344066	1
1	36205	362.961539	2
1	36212	362.962307	1
1	36256	363.57978	2
1	36263	363.580548	1
1	36307	364.198021	2
1	36314	364.198789	1
1	36358	364.816262	2
1	36365	364.81703	1
1	36409	365.434503	2
1	36416	365.435271	1
1	36463	366.052744	2
1	36470	366.053512	1
1	36557	366.20457177082	2
1	36564	366.20511577082	1
1	36602	366.670985	2
1	36609	366.671753	1
1	36653	367.289226	2
1	36660	367.289994	1
[...]
36	68862	670.458222503023	2
36	68869	670.466414503023	1
36	69627	675.501015446261	2
36	69634	675.501495446261	1
36	69714	675.581993429305	2
36	69721	675.582537429305	1
36	70168	680.639088570174	2
36	70175	680.647280570174	1
36	77390	749.503665954442	2
36	77397	749.504145954442	1
36	82380	797.289266722644	2
36	82387	797.289810722644	1
36	82834	802.282332178965	2
36	82841	802.290524178965	1
36	83378	807.458524674411	2
36	83385	807.459068674411	1
36	83883	812.49330654673	2
36	83890	812.50149854673	1
36	85104	823.500919502305	2
36	85112	823.501399502305	1
36	92961	897.501606986628	2
36	92968	897.502086986628	1
36	96352	929.13605286928	2
36	96359	929.13659686928	1
36	96806	934.172847090535	2
36	96813	934.181039090535	1
36	97401	939.303874942572	2
36	97408	939.304418942572	1
36	97855	944.363657411587	2
36	97862	944.371849411587	1
36	100727	971.50227496011	2
36	100734	971.50275496011	1
37	430	5.200352218072	1
37	546	5.272325299535	2
38	674	5.375547246397	5
38	750	5.434031483347	0
38	790	5.46179105641	0
38	877	5.485610423557	0
38	1646	8.639671807279	0
38	3018	20.471693458745	0
38	3107	20.485357286084	0
38	5131	35.491381558832	0
38	5254	35.52657990053	1
38	9632	82.639599052395	0
38	16214	156.636322623816	0
38	22744	230.637154549553	0
38	29574	304.639736962656	0
38	35840	360.978644420246	0
38	35967	361.080383781408	0
38	36005	361.087443474997	0
38	36510	366.130798770492	0
38	37054	371.307679730778	0
38	37585	376.279955972664	0
38	37989	378.640957543917	0
38	46067	452.636262107474	0
38	50340	493.127539338199	0
38	50794	498.167817554465	0
38	51389	503.369728189125	0
38	51843	508.31054043225	0
38	53872	526.641426811587	0
38	61638	600.639514619601	0
38	64235	624.857479881962	0
38	64689	629.865882309571	0
38	65361	635.032847377882	0
38	65815	639.993797838388	0
38	69494	674.638150093715	0
38	77208	748.638891851864	0
38	78130	756.66600083436	0
38	78584	761.667727105729	0
38	79256	766.778155072198	0
38	79710	771.80576206377	0
38	84975	822.640047919666	0
38	91794	888.451721266251	0
38	92299	893.456188630476	0
38	92831	896.641672021003	0
38	93151	898.575293315611	0
38	93605	903.62206416918	0
38	100546	970.641189673243	0
39	674	5.375547246397	0.368050063438
39	750	5.434031483347	0.008916500543
39	790	5.46179105641	0.036676073606
39	877	5.485610423557	0.009030759519
39	1646	8.639671807279	0.007722663087
39	3018	20.471693458745	15.046578475941
39	3107	20.485357286084	0.007409311922
39	5131	35.491381558832	30.066266576028
39	5254	35.52657990053	0.021969413406
39	9632	82.639599052395	0.008619961744
39	16214	156.636322623816	0.007152246548
39	22744	230.637154549553	0.006464659047
39	29574	304.639736962656	0.007712752545
39	35840	360.978644420246	0.007809822544
39	35967	361.080383781408	0.047277855666
39	36005	361.087443474997	0.046873531791
39	36510	366.130798770492	0.09769284475
39	37054	371.307679730778	0.084817722142
39	37585	376.279955972664	0.057093964028
39	37989	378.640957543917	0.00761470691
39	46067	452.636262107474	0.006767248246
39	50340	493.127539338199	0.022430052295
39	50794	498.167817554465	0.062708268561
39	51389	503.369728189125	0.117080992534
39	51843	508.31054043225	0.057893235659
39	53872	526.641426811587	0.008844471583
39	61638	600.639514619601	0.008422010797
39	64235	624.857479881962	0.026678023586
39	64689	629.865882309571	0.035080451195
39	65361	635.032847377882	0.061226288895
39	65815	639.993797838388	0.022176749401
39	69494	674.638150093715	0.006738276248
39	77208	748.638891851864	0.006527900677
39	78130	756.66600083436	0.065690831385
39	78584	761.667727105729	0.067417102754
39	79256	766.778155072198	0.0579726173
39	79710	771.80576206377	0.085579608872
39	84975	822.640047919666	0.008794135915
39	91794	888.451721266251	0.038103709259
39	92299	893.456188630476	0.042571073484
39	92831	896.641672021003	0.00910183456
39	93151	898.575293315611	0.022977404709
39	93605	903.62206416918	0.069748258278
39	100546	970.641189673243	0.010196141666
40	676	5.375547246397	2
40	683	5.377307246397	1
40	752	5.434031483347	2
40	759	5.435791483347	1
40	792	5.46179105641	2
40	799	5.46220705641	1
40	879	5.485610423557	2
40	905	5.486026423557	1
40	1648	8.639671807279	2
40	1655	8.640151807279	1
40	3020	20.471693458745	2
40	3047	20.472109458745	1
40	3109	20.485357286084	2
40	3116	20.485773286084	1
40	5133	35.491381558832	2
40	5140	35.491797558832	1
40	5256	35.52657990053	2
40	5263	35.52699590053	1
40	9634	82.639599052395	2
40	9641	82.640079052395	1
40	16216	156.636322623816	2
40	16223	156.636802623816	1
40	22746	230.637154549553	2
40	22754	230.637634549553	1
40	29576	304.639736962656	2
40	29583	304.640216962656	1
40	35842	360.978644420246	2
40	35849	360.979444420246	1
40	35969	361.080383781408	2
40	35976	361.080927781408	1
40	36007	361.087443474997	2
40	36014	361.087859474997	1
40	36512	366.130798770492	2
40	36519	366.138990770492	1
40	37056	371.307679730778	2
40	37063	371.308223730778	1
40	37587	376.279955972664	2
40	37594	376.288147972664	1
40	37991	378.640957543917	2
40	37998	378.641437543917	1
40	46069	452.636262107474	2
40	46076	452.636742107474	1
40	50342	493.127539338199	2
40	50349	493.128083338199	1
40	50796	498.167817554465	2
40	50803	498.176009554465	1
40	51391	503.369728189125	2
40	51398	503.370272189125	1
40	51845	508.31054043225	2
40	51852	508.31873243225	1
40	53874	526.641426811587	2
40	53881	526.641906811587	1
40	61640	600.639514619601	2
40	61647	600.639994619601	1
40	64237	624.857479881962	2
40	64244	624.858023881962	1
40	64691	629.865882309571	2
40	64698	629.874074309571	1
40	65363	635.032847377882	2
40	65370	635.033391377882	1
40	65817	639.993797838388	2
40	65824	640.001989838388	1
40	69496	674.638150093715	2
40	69503	674.638630093715	1
40	77210	748.638891851864	2
40	77218	748.639371851864	1
40	78132	756.66600083436	2
40	78139	756.66654483436	1
40	78586	761.667727105729	2
40	78593	761.675919105729	1
40	79258	766.778155072198	2
40	79265	766.778699072198	1
40	79712	771.80576206377	2
40	79719	771.81395406377	1
40	84977	822.640047919666	2
40	84984	822.640527919666	1
40	91796	888.451721266251	2
40	91803	888.452265266251	1
40	92301	893.456188630476	2
40	92308	893.464380630476	1
40	92833	896.641672021003	2
40	92840	896.642152021003	1
40	93153	898.575293315611	2
40	93160	898.575837315611	1
40	93607	903.62206416918	2
40	93614	903.63025616918	1
40	100548	970.641189673243	2
40	100555	970.641669673243	1
41	968	5.625738182959	2
42	978	5.633270226286	0
42	1054	5.687940876866	0
42	1094	5.716230121703	0
42	1210	5.74852284657	1
42	1288	5.953792253543	0
42	9274	79.954587364823	0
42	15805	153.956896943463	0
42	22387	227.956206583297	0
42	28820	300.024847470182	0
42	28947	300.146613594633	0
42	28985	300.156491081208	0
42	29216	301.956290535667	0
42	29670	305.132160112041	0
42	30291	310.308457746926	0
42	30745	315.275825880016	0
42	37540	375.974171796423	0
42	43737	432.174315992578	0
42	44242	437.177923827794	0
42	44786	442.304045779212	0
42	45240	447.320792674625	0
42	45567	449.955660226161	0
42	53514	523.956538170974	0
42	57760	563.972252765226	0
42	58214	569.035455039849	0
42	58758	574.190144492756	0
42	59212	579.178041708342	0
42	61189	597.956189052395	0
42	69085	671.958437116133	0
42	71655	695.7425255592	0
42	72109	700.770651693129	0
42	72653	705.84469076142	0
42	73184	710.899385210995	0
42	76760	745.956019484443	0
42	84617	819.957751057129	0
42	85550	827.672067646114	0
42	86004	832.665600729359	0
42	86676	837.84249531276	0
42	87130	842.801610911585	0
42	92421	893.953083598837	0
42	99214	959.451441131933	0
42	99719	964.540443938871	0
42	100097	967.953485822589	0
42	100417	969.627492418218	0
42	101025	974.641013295436	0
43	978	5.633270226286	0.007532043327
43	1054	5.687940876866	0.006421608841
43	1094	5.716230121703	0.034710853678
43	1210	5.74852284657	0.016222300774
43	1288	5.953792253543	0.006792355596
43	9274	79.954587364823	0.008618051689
43	15805	153.956896943463	0.010407886758
43	22387	227.956206583297	0.008427776582
43	28820	300.024847470182	0.007227839109
43	28947	300.146613594633	0.049358054712
43	28985	300.156491081208	0.05187491351
43	29216	301.956290535667	0.008855147892
43	29670	305.132160112041	0.03490457212
43	30291	310.308457746926	0.073437247133
43	30745	315.275825880016	0.040805380223
43	37540	375.974171796423	0.007555162102
43	43737	432.174315992578	0.020615440636
43	44242	437.177923827794	0.024223275852
43	44786	442.304045779212	0.029524753728
43	45240	447.320792674625	0.046271649141
43	45567	449.955660226161	0.009740263046
43	53514	523.956538170974	0.007878802245
43	57760	563.972252765226	0.02624282227
43	58214	569.035455039849	0.089445096893
43	58758	574.190144492756	0.082986543047
43	59212	579.178041708342	0.070883758633
43	61189	597.956189052395	0.009803925084
43	69085	671.958437116133	0.010471700651
43	71655	695.7425255592	0.049605391948
43	72109	700.770651693129	0.077731525877
43	72653	705.84469076142	0.024285721018
43	73184	710.899385210995	0.078980170593
43	76760	745.956019484443	0.008665783545
43	84617	819.957751057129	0.008262888127
43	85550	827.672067646114	0.073479666212
43	86004	832.665600729359	0.067012749457
43	86676	837.84249531276	0.074149134144
43	87130	842.801610911585	0.033264732969
43	92421	893.953083598837	0.006468363488
43	99214	959.451441131933	0.036200202742
43	99719	964.540443938871	0.12520300968
43	100097	967.953485822589	0.007529247789
43	100417	969.627492418218	0.021177718709
43	101025	974.641013295436	0.034698595927
44	980	5.633270226286	2
44	987	5.635030226286	1
44	1056	5.687940876866	2
44	1063	5.689700876866	1
44	1096	5.716230121703	2
44	1103	5.716646121703	1
44	1212	5.74852284657	2
44	1220	5.74893884657	1
44	1290	5.953792253543	2
44	1297	5.954272253543	1
44	9276	79.954587364823	2
44	9283	79.955067364823	1
44	15807	153.956896943463	2
44	15814	153.957376943463	1
44	22389	227.956206583297	2
44	22396	227.956686583297	1
44	28822	300.024847470182	2
44	28829	300.025647470182	1
44	28949	300.146613594633	2
44	28956	300.147157594633	1
44	28987	300.156491081208	2
44	28994	300.156907081208	1
44	29218	301.956290535667	2
44	29225	301.956770535667	1
44	29672	305.132160112041	2
44	29679	305.140352112041	1
44	30293	310.308457746926	2
44	30300	310.309001746926	1
44	30747	315.275825880016	2
44	30754	315.284017880016	1
44	37542	375.974171796423	2
44	37549	375.974651796423	1
44	43739	432.174315992578	2
44	43746	432.174859992578	1
44	44244	437.177923827794	2
44	44251	437.186115827794	1
44	44788	442.304045779212	2
44	44795	442.304589779212	1
44	45242	447.320792674625	2
44	45249	447.328984674625	1
44	45569	449.955660226161	2
44	45576	449.956140226161	1
44	53516	523.956538170974	2
44	53523	523.957018170974	1
44	57762	563.972252765226	2
44	57769	563.972796765226	1
44	58216	569.035455039849	2
44	58223	569.043647039849	1
44	58760	574.190144492756	2
44	58767	574.190688492756	1
44	59214	579.178041708342	2
44	59221	579.186233708342	1
44	61191	597.956189052395	2
44	61198	597.956669052395	1
44	69087	671.958437116133	2
44	69094	671.958917116133	1
44	71657	695.7425255592	2
44	71664	695.7430695592	1
44	72111	700.770651693129	2
44	72118	700.778843693129	1
44	72655	705.84469076142	2
44	72662	705.84523476142	1
44	73186	710.899385210995	2
44	73193	710.907577210995	1
44	76762	745.956019484443	2
44	76769	745.956499484443	1
44	84619	819.957751057129	2
44	84626	819.958231057129	1
44	85552	827.672067646114	2
44	85559	827.672611646114	1
44	86006	832.665600729359	2
44	86013	832.673792729359	1
44	86678	837.84249531276	2
44	86685	837.84303931276	1
44	87132	842.801610911585	2
44	87139	842.809802911585	1
44	92423	893.953083598837	2
44	92431	893.953563598837	1
44	99216	959.451441131933	2
44	99223	959.451985131933	1
44	99721	964.540443938871	2
44	99728	964.548635938871	1
44	100099	967.953485822589	2
44	100106	967.953965822589	1
44	100419	969.627492418218	2
44	100426	969.628036418218	1
44	101027	974.641013295436	2
44	101034	974.649205295436	1
45	28775	300	0
45	43683	432.062745498569	1
45	43683	432.062745498569	0
45	57655	563.867917690319	1
45	57655	563.867917690319	0
45	71601	695.662832881165	1
45	71601	695.662832881165	0
45	85496	827.517050857721	1
45	85496	827.517050857721	0
45	99160	959.387401722578	1
45	99160	959.387401722578	0
46	29661	305.097255539921	0
46	30736	315.235020499793	10.155904423032
46	44218	437.153700551942	10.143665767975
46	45231	447.274521025484	10.138922640216
46	58205	568.946009942956	10.142868846831
46	59203	579.107157949709	10.191281660521
46	72100	700.692920167252	10.142586668493
46	73175	710.820405040402	10.131563122955
46	85995	832.598587979902	10.128733517866
46	87121	842.768346178616	10.172294182629
46	99659	964.415240929191	10.136010182226
46	101016	974.606314699509	10.176786527284
47	30237	310.155904423032	10.155904423032
47	31312	320.299570191007	10.143665767975
47	32517	330.438363186093	10.138792995086
47	33592	340.552894032765	10.114530846672
47	34797	350.757779052042	10.204885019277
47	35795	360.951681051849	10.193901999807
47	37000	371.154543081483	10.202862029634
47	38306	381.303700283655	10.149157202172
47	39511	391.561880246336	10.258179962681
47	40586	401.690092220406	10.12821197407
47	41868	411.933890132053	10.243797911647
47	42866	422.062745498569	10.128855366516
47	44732	442.201668138785	10.138922640216
47	45884	452.344536985616	10.142868846831
47	47036	462.473533946365	10.128996960749
47	48162	472.674274112646	10.200740166281
47	49160	482.853919913053	10.179645800407
47	50286	493.056520337556	10.202600424503
47	51284	503.191561865456	10.1350415279
47	52333	513.334284743241	10.142722877785
47	53331	523.44028935542	10.106004612179
47	54637	533.589946334184	10.149656978764
47	55763	543.733974379248	10.144028045064
47	56761	553.867917690319	10.133943311071
47	58704	574.05919935084	10.191281660521
47	59702	584.201786019333	10.142586668493
47	60751	594.314636965912	10.112850946579
47	62057	604.475264638327	10.160627672415
47	63106	614.616225200833	10.140960562506
47	64181	624.745523479455	10.129298278622
47	65256	634.889626620562	10.144103141107
47	66305	645.017542149379	10.127915528817
47	67303	655.173796788382	10.156254639003
47	68351	665.290910092374	10.117113303992
47	69583	675.481966814014	10.19105672164
47	70656	685.662832881165	10.180866067151
47	72599	705.79439600412	10.131563122955
47	73674	715.923129521986	10.128733517866
47	74723	726.058389140776	10.13525961879
47	75721	736.178916817959	10.120527677183
47	76847	746.39997335281	10.221056534851
47	78076	756.553588630682	10.153615277872
47	79202	766.69147141672	10.137882786038
47	80200	776.829506374761	10.138034958041
47	81275	786.950850168692	10.121343793931
47	82324	797.140416523755	10.189566355063
47	83322	807.306076489956	10.165659966201
47	84371	817.517050857721	10.210974367765
47	86571	837.68934504035	10.172294182629
47	87620	847.825355222576	10.136010182226
47	88695	857.922248792396	10.09689356982
47	89693	868.057989078608	10.135740286212
47	90742	878.154075980104	10.096086901496
47	91740	888.324170265031	10.170094284927
47	93097	898.479932941467	10.155762676436
47	94095	908.645808480171	10.165875538704
47	95221	918.894919500122	10.249111019951
47	96296	929.030408738231	10.135489238109
47	97345	939.196591401526	10.166182663295
47	98343	949.387401722578	10.190810321052
47	100363	969.564188249862	10.176786527284
47	101515	979.664757606427	10.100569356565
47	102590	989.817662662074	10.152905055647
47	103639	999.905814841949	10.088152179875
48	30237	310.155904423032	188.26486744636
48	31312	320.299570191007	188.49201499092
48	32517	330.438363186093	188.58260553566
48	33592	340.552894032765	189.03496652335
48	34797	350.757779052042	187.36124869494
48	35795	360.951681051849	187.56311371604
48	37000	371.154543081483	187.3983980619
48	38306	381.303700283655	188.39002706459
48	39511	391.561880246336	186.38783945649
48	40586	401.690092220406	188.77961923537
48	41868	411.933890132053	186.64952359379
48	42866	422.062745498569	188.76762781318
48	44732	442.201668138785	188.58019415357
48	45884	452.344536985616	188.50682473306
48	47036	462.473533946365	188.76498901216
48	48162	472.674274112646	187.43737893846
48	49160	482.853919913053	187.82578858722
48	50286	493.056520337556	187.40320314888
48	51284	503.191561865456	188.65240904407
48	52333	513.334284743241	188.50953762995
48	53331	523.44028935542	189.19445155366
48	54637	533.589946334184	188.38075060078
48	55763	543.733974379248	188.48528331212
48	56761	553.867917690319	188.67285333156
48	58704	574.05919935084	187.61133915145
48	59702	584.201786019333	188.51206920809
48	60751	594.314636965912	189.06636813893
48	62057	604.475264638327	188.17735101059
48	63106	614.616225200833	188.54229717343
48	64181	624.745523479455	188.75937378952
48	65256	634.889626620562	188.48388796955
48	66305	645.017542149379	188.78514483654
48	67303	655.173796788382	188.25837554893
48	68351	665.290910092374	188.98671414954
48	69583	675.481966814014	187.61548014349
48	70656	685.662832881165	187.80327600705
48	72599	705.79439600412	188.71717787239
48	73674	715.923129521986	188.76989868748
48	74723	726.058389140776	188.64834961458
48	75721	736.178916817959	188.9229555007
48	76847	746.39997335281	187.06481012805
48	78076	756.553588630682	188.30731199427
48	79202	766.69147141672	188.59953703876
48	80200	776.829506374761	188.59670615788
48	81275	786.950850168692	188.90772203059
48	82324	797.140416523755	187.6429215312
48	83322	807.306076489956	188.08419781471
48	84371	817.517050857721	187.24951519181
48	86571	837.68934504035	187.96153214533
48	87620	847.825355222576	188.63438035538
48	88695	857.922248792396	189.36517323655
48	89693	868.057989078608	188.63940333998
48	90742	878.154075980104	189.38030334472
48	91740	888.324170265031	188.0021901895
48	93097	898.479932941467	188.26749510761
48	94095	908.645808480171	188.08020939471
48	95221	918.894919500122	186.55276504256
48	96296	929.030408738231	188.64407578975
48	97345	939.196591401526	188.07452741365
48	98343	949.387401722578	187.62001644268
48	100363	969.564188249862	187.87856017948
48	101515	979.664757606427	189.29625969622
48	102590	989.817662662074	188.32048458254
48	103639	999.905814841949	189.52925827331
49	32018	325.386258021928	0
49	33016	335.493356359369	10.138792995086
49	46537	457.421246702516	10.114530846672
49	47663	467.568097465401	10.128996960749
49	60252	589.267500466937	10.200740166281
49	61327	599.400071008555	10.112850946579
49	74224	720.966156110248	10.160627672415
49	75222	731.132719201604	10.13525961879
49	88119	852.861347902902	10.120527677183
49	89194	862.974951990763	10.09689356982
49	102014	984.732556748674	10.135740286212
49	103140	994.841578734481	10.152905055647
50	34297	345.660193019056	0
50	35296	355.843110289294	10.204885019277
50	48661	477.757223994899	10.193901999807
50	49787	487.999483988215	10.179645800407
50	62556	609.565175896799	10.202600424503
50	63682	619.688189877149	10.140960562506
50	76220	741.241323136042	10.129298278622
50	77577	751.48941293925	10.221056534851
50	90243	873.105160143475	10.153615277872
50	91241	883.243750057391	10.096086901496
51	36450	366.033105925742	0
51	37576	376.222862008636	10.202862029634
51	50785	498.105109285904	10.149157202172
51	51819	508.252647196591	10.1350415279
51	64680	629.830801858376	10.142722877785
51	65806	639.971621088987	10.144103141107
51	78575	761.600310002975	10.127915528817
51	79701	771.720182454898	10.137882786038
51	92275	893.413617556992	10.138034958041
51	93596	903.552315910902	10.155762676436
52	38961	386.4260469756	0
52	40087	396.645636819477	10.258179962681
52	52832	518.378783463094	10.12821197407
52	54138	528.527450649661	10.106004612179
52	66804	650.08555289984	10.149656978764
52	67802	660.204710500388	10.156254639003
52	80776	781.884217535095	10.117113303992
52	81774	792.004099933257	10.121343793931
52	94671	913.726798636228	10.189566355063
52	95720	923.978619177585	10.249111019951
53	41241	406.809536353208	0
53	42367	416.996448081439	10.243797911647
53	55187	538.63345336607	10.128855366516
53	56262	548.813527833643	10.144028045064
53	68851	670.374951287522	10.133943311071
53	70157	680.553880152158	10.19105672164
53	82823	802.217098990782	10.180866067151
53	83821	812.386325796542	10.165659966201
53	96795	934.114322843571	10.210974367765
53	97844	944.284001194429	10.166182663295

