version 2
run simple-0-20211110-15:58:13-15048
attr configname simple
attr datetime 20211110-15:58:13
attr experiment simple
attr inifile HybridMeter.ini
attr iterationvars ""
attr iterationvarsf ""
attr measurement ""
attr network HybridMeter_Net
attr processid 15048
attr repetition 0
attr replication #0
attr resultdir results
attr runnumber 0
attr seedset 0
param *.host*.ipv4.arp.typename "\"GlobalArp\""
param *.hostA.numApps 1
param *.hostA.app[0].typename "\"UdpBasicApp\""
param *.hostA.app[0].destAddresses "\"hostB\""
param *.hostA.app[0].destPort 5000
param *.hostA.app[0].messageLength 1000B
param *.hostA.app[0].sendInterval exponential(12ms)
param *.hostA.app[0].packetName "\"UDPData\""
param *.hostB.numApps 1
param *.hostB.app[0].typename "\"UdpSink\""
param *.hostB.app[0].localPort 5000
param *.host*.wlan[0].typename "\"AckingWirelessInterface\""
param *.host*.wlan[0].mac.useAck false
param *.host*.wlan[0].mac.fullDuplex false
param *.host*.wlan[0].radio.transmitter.communicationRange 500m
param *.host*.wlan[0].radio.receiver.ignoreInterference true
param *.host*.wlan[0].mac.headerLength 23B
param *.host*.**.bitrate 1Mbps
param **.busLength 400
param **.attFileAddress "\"topologiasLINTER/att/javi_simple.txt\""
param **.archFileAddress "\"topologiasLINTER/output_csv/88_nueva_top.csv\""
param **.nBranches 2
param **.nHostsPerBranch 5

vector 0 HybridMeter_Net.hostA.wlan[0].radio radioMode:vector ETV
attr interpolationmode sample-hold
attr source radioModeChanged
attr title "Radio mode, vector"
vector 1 HybridMeter_Net.hostB.wlan[0].radio radioMode:vector ETV
attr interpolationmode sample-hold
attr source radioModeChanged
attr title "Radio mode, vector"
vector 2 HybridMeter_Net.hostA.wlan[0].radio receptionState:vector ETV
attr interpolationmode sample-hold
attr source receptionStateChanged
attr title "Radio reception state, vector"
vector 3 HybridMeter_Net.hostB.wlan[0].radio receptionState:vector ETV
attr interpolationmode sample-hold
attr source receptionStateChanged
attr title "Radio reception state, vector"
vector 4 HybridMeter_Net.hostA.app[0] packetSent:vector(packetBytes) ETV
attr interpolationmode none
attr source packetSent
attr title "packets sent, vector(packetBytes)"
vector 5 HybridMeter_Net.hostA.udp packetSent:vector(packetBytes) ETV
attr interpolationmode none
attr source packetSent
attr title "packets sent, vector(packetBytes)"
vector 6 HybridMeter_Net.hostA.wlan[0].mac rcvdPkFromHl:vector(packetBytes) ETV
attr interpolationmode none
attr source packetReceivedFromUpper
attr title "packets received from higher layer, vector(packetBytes)"
vector 7 HybridMeter_Net.hostA.wlan[0].mac.queue packetPushed:vector(packetBytes) ETV
attr interpolationmode none
attr title "packet pushed, vector(packetBytes)"
vector 8 HybridMeter_Net.hostA.wlan[0].mac.queue queueLength:vector ETV
attr interpolationmode sample-hold
attr source "count(packetPushed) - count(packetPopped) - count(packetRemoved) - count(packetDropped)"
attr title "queue length, vector"
vector 9 HybridMeter_Net.hostA.wlan[0].mac.queue packetPopped:vector(packetBytes) ETV
attr interpolationmode none
attr title "packet popped, vector(packetBytes)"
vector 10 HybridMeter_Net.hostA.wlan[0].mac.queue queueingTime:vector ETV
attr interpolationmode none
attr source queueingTime(packetPopped)
attr title "queueing times, vector"
attr unit s
vector 11 HybridMeter_Net.hostA.wlan[0].radio transmissionState:vector ETV
attr interpolationmode sample-hold
attr source transmissionStateChanged
attr title "Radio transmission state, vector"
vector 12 HybridMeter_Net.hostA.wlan[0].mac sentDownPk:vector(packetBytes) ETV
attr interpolationmode none
attr source packetSentToLower
attr title "packets sent to lower layer, vector(packetBytes)"
vector 13 HybridMeter_Net.hostB.wlan[0].mac rcvdPkFromLl:vector(packetBytes) ETV
attr interpolationmode none
attr source packetReceivedFromLower
attr title "packets received from lower layer, vector(packetBytes)"
vector 14 HybridMeter_Net.hostB.wlan[0].mac passedUpPk:vector(packetBytes) ETV
attr interpolationmode none
attr source packetSentToUpper
attr title "packets passed to higher layer, vector(packetBytes)"
vector 15 HybridMeter_Net.hostB.udp packetReceived:vector(packetBytes) ETV
attr interpolationmode none
attr source packetReceived
attr title "packets received, vector(packetBytes)"
vector 16 HybridMeter_Net.hostB.udp passedUpPk:vector(count) ETV
attr interpolationmode none
attr source packetSentToUpper
attr title "packets passed up, vector(count)"
vector 17 HybridMeter_Net.hostB.app[0] packetReceived:vector(packetBytes) ETV
attr interpolationmode none
attr source packetReceived
attr title "packets received, vector(packetBytes)"
vector 18 HybridMeter_Net.hostB.app[0] endToEndDelay:vector ETV
attr interpolationmode none
attr source dataAge(packetReceived)
attr title "end-to-end delay, vector"
attr unit s
vector 19 HybridMeter_Net.hostB.app[0] rcvdPkSeqNo:vector ETV
attr interpolationmode none
attr source appPkSeqNo(packetReceived)
attr title "received packet sequence number, vector"
0	0	0	0
0	0	0	0
0	0	0	2
0	8	0.022315250545	3
0	15	0.030819250545	2
0	15	0.030819250545	3
0	23	0.039323250545	2
0	34	0.050175141128	3
0	41	0.058679141128	2
0	41	0.058679141128	3
1	0	0	0
1	0	0	0
1	0	0	2
2	0	0	1
2	8	0.022315250545	0
2	15	0.030819250545	1
2	15	0.030819250545	0
2	23	0.039323250545	1
2	34	0.050175141128	0
2	41	0.058679141128	1
2	41	0.058679141128	0
3	0	0	1
3	10	0.022315724633	3
3	17	0.030819724633	2
3	18	0.030819724633	3
3	24	0.039323724633	1
3	36	0.050175615216	3
4	4	0.022315250545	1000
4	11	0.030108606724	1000
4	31	0.050175141128	1000
4	37	0.058021731935	1000
5	6	0.022315250545	1008
5	12	0.030108606724	1008
5	32	0.050175141128	1008
5	38	0.058021731935	1008
6	8	0.022315250545	1028
6	14	0.030108606724	1028
6	34	0.050175141128	1028
6	40	0.058021731935	1028
7	8	0.022315250545	1028
7	14	0.030108606724	1028
7	34	0.050175141128	1028
7	40	0.058021731935	1028
8	8	0.022315250545	1
8	8	0.022315250545	0
8	14	0.030108606724	1
8	15	0.030819250545	0
8	34	0.050175141128	1
8	34	0.050175141128	0
8	40	0.058021731935	1
8	41	0.058679141128	0
9	8	0.022315250545	1028
9	15	0.030819250545	1028
9	34	0.050175141128	1028
9	41	0.058679141128	1028
10	8	0.022315250545	0
10	15	0.030819250545	0.000710643821
10	34	0.050175141128	0
10	41	0.058679141128	0.000657409193
11	8	0.022315250545	1
11	9	0.022315250545	2
11	15	0.030819250545	1
11	15	0.030819250545	0
11	15	0.030819250545	1
11	16	0.030819250545	2
11	23	0.039323250545	1
11	23	0.039323250545	0
11	34	0.050175141128	1
11	35	0.050175141128	2
11	41	0.058679141128	1
11	41	0.058679141128	0
11	41	0.058679141128	1
11	42	0.058679141128	2
12	8	0.022315250545	1051
12	15	0.030819250545	1051
12	34	0.050175141128	1051
12	41	0.058679141128	1051
13	19	0.030819724633	1051
13	25	0.039323724633	1051
14	19	0.030819724633	1028
14	25	0.039323724633	1028
15	21	0.030819724633	1008
15	27	0.039323724633	1008
16	21	0.030819724633	1
16	27	0.039323724633	2
17	22	0.030819724633	1000
17	28	0.039323724633	1000
18	22	0.030819724633	0.008504474088
18	28	0.039323724633	0.009215117909
19	22	0.030819724633	0
19	28	0.039323724633	1
vector 20 HybridMeter_Net.hostB.app[0] throughput:vector ETV
attr source throughput(packetReceived)
attr title "throughput, vector"
attr unit bps
0	53	0.067183141128	2
0	53	0.067183141128	3
0	62	0.075687141128	2
0	73	0.085708627214	3
0	80	0.094212627214	2
0	80	0.094212627214	3
0	88	0.102716627214	2
0	97	0.103182913269	3
0	105	0.111686913269	2
0	105	0.111686913269	3
0	114	0.120190913269	2
0	125	0.14649593006	3
0	132	0.15499993006	2
0	132	0.15499993006	3
0	140	0.16350393006	2
0	150	0.172801406895	3
0	158	0.181305406895	2
0	158	0.181305406895	3
0	166	0.189809406895	2
0	177	0.199869941866	3
0	180	0.208373941866	2
0	189	0.20868951492	3
0	192	0.21719351492	2
0	202	0.222320782221	3
0	206	0.230824782221	2
0	215	0.237623514648	3
0	219	0.246127514648	2
0	228	0.248091368989	3
0	232	0.256595368989	2
0	241	0.257341384891	3
0	244	0.265845384891	2
0	254	0.274397761052	3
0	262	0.282901761052	2
0	262	0.282901761052	3
0	278	0.291405761052	2
0	278	0.291405761052	3
0	287	0.299909761052	2
0	287	0.299909761052	3
0	308	0.308413761052	2
0	308	0.308413761052	3
0	329	0.316917761052	2
0	329	0.316917761052	3
0	342	0.325421761052	2
0	342	0.325421761052	3
0	351	0.333925761052	2
0	351	0.333925761052	3
0	360	0.342429761052	2
0	360	0.342429761052	3
0	373	0.350933761052	2
0	373	0.350933761052	3
0	386	0.359437761052	2
0	386	0.359437761052	3
0	395	0.367941761052	2
0	395	0.367941761052	3
0	408	0.376445761052	2
0	408	0.376445761052	3
0	417	0.384949761052	2
0	417	0.384949761052	3
0	426	0.393453761052	2
0	436	0.396568227753	3
0	444	0.405072227753	2
0	444	0.405072227753	3
0	452	0.413576227753	2
0	463	0.439825526675	3
0	466	0.448329526675	2
0	475	0.452531536253	3
0	487	0.461035536253	2
0	487	0.461035536253	3
0	495	0.469539536253	2
0	495	0.469539536253	3
0	508	0.478043536253	2
0	508	0.478043536253	3
0	517	0.486547536253	2
0	526	0.488002748382	3
0	538	0.496506748382	2
0	538	0.496506748382	3
0	547	0.505010748382	2
0	547	0.505010748382	3
0	560	0.513514748382	2
0	560	0.513514748382	3
0	569	0.522018748382	2
0	580	0.543576108714	3
0	583	0.552080108714	2
0	592	0.556270025674	3
0	596	0.564774025674	2
0	605	0.568366256619	3
0	609	0.576870256619	2
0	619	0.632687460822	3
0	622	0.641191460822	2
0	631	0.643150451066	3
0	639	0.651654451066	2
0	639	0.651654451066	3
0	651	0.660158451066	2
0	651	0.660158451066	3
0	660	0.668662451066	2
0	669	0.669018968099	3
0	677	0.677522968099	2
0	677	0.677522968099	3
0	686	0.686026968099	2
0	695	0.687447002476	3
0	703	0.695951002476	2
0	703	0.695951002476	3
0	712	0.704455002476	2
0	722	0.710105296595	3
0	726	0.718609296595	2
0	736	0.745951575297	3
0	739	0.754455575297	2
0	748	0.758986807868	3
0	756	0.767490807868	2
0	756	0.767490807868	3
0	768	0.775994807868	2
0	768	0.775994807868	3
0	781	0.784498807868	2
0	781	0.784498807868	3
0	790	0.793002807868	2
0	801	0.827172838876	3
0	804	0.835676838876	2
0	814	0.852436694486	3
0	817	0.860940694486	2
0	826	0.860987697606	3
0	841	0.869491697606	2
0	841	0.869491697606	3
0	854	0.877995697606	2
0	854	0.877995697606	3
0	863	0.886499697606	2
0	863	0.886499697606	3
0	872	0.895003697606	2
0	872	0.895003697606	3
0	881	0.903507697606	2
0	892	0.922810647041	3
0	899	0.931314647041	2
0	899	0.931314647041	3
0	911	0.939818647041	2
0	911	0.939818647041	3
0	920	0.948322647041	2
0	930	0.950025918315	3
0	934	0.958529918315	2
0	944	0.975516764679	3
0	947	0.984020764679	2
0	1012	1.005563706076	3
0	1019	1.014067706076	2
0	1019	1.014067706076	3
0	1031	1.022571706076	2
0	1031	1.022571706076	3
0	1040	1.031075706076	2
0	1051	1.042529459916	3
0	1054	1.051033459916	2
0	1063	1.051064435163	3
0	1066	1.059568435163	2
0	1077	1.080891423447	3
0	1080	1.089395423447	2
0	1090	1.111375077543	3
0	1105	1.119879077543	2
0	1105	1.119879077543	3
0	1113	1.128383077543	2
0	1113	1.128383077543	3
0	1122	1.136887077543	2
0	1122	1.136887077543	3
0	1135	1.145391077543	2
0	1135	1.145391077543	3
0	1148	1.153895077543	2
0	1148	1.153895077543	3
0	1157	1.162399077543	2
0	1168	1.173197906645	3
0	1175	1.181701906645	2
0	1175	1.181701906645	3
0	1187	1.190205906645	2
0	1187	1.190205906645	3
0	1204	1.198709906645	2
0	1204	1.198709906645	3
0	1221	1.207213906645	2
0	1221	1.207213906645	3
0	1234	1.215717906645	2
0	1234	1.215717906645	3
0	1243	1.224221906645	2
0	1243	1.224221906645	3
0	1260	1.232725906645	2
0	1260	1.232725906645	3
0	1273	1.241229906645	2
0	1273	1.241229906645	3
0	1282	1.249733906645	2
0	1282	1.249733906645	3
0	1295	1.258237906645	2
0	1295	1.258237906645	3
0	1308	1.266741906645	2
0	1308	1.266741906645	3
0	1317	1.275245906645	2
0	1317	1.275245906645	3
0	1326	1.283749906645	2
0	1336	1.287999317888	3
0	1340	1.296503317888	2
0	1349	1.300223222648	3
0	1353	1.308727222648	2
0	1363	1.32688130543	3
0	1366	1.33538530543	2
0	1375	1.340556600992	3
0	1383	1.349060600992	2
0	1383	1.349060600992	3
0	1391	1.357564600992	2
0	1402	1.393829232723	3
0	1409	1.402333232723	2
0	1409	1.402333232723	3
0	1417	1.410837232723	2
0	1427	1.412793375194	3
0	1435	1.421297375194	2
0	1435	1.421297375194	3
0	1443	1.429801375194	2
0	1453	1.432665429355	3
0	1465	1.441169429355	2
0	1465	1.441169429355	3
0	1473	1.449673429355	2
0	1473	1.449673429355	3
0	1482	1.458177429355	2
0	1493	1.480995666614	3
0	1496	1.489499666614	2
0	1505	1.491650003539	3
0	1509	1.500154003539	2
0	1518	1.504584022149	3
0	1522	1.513088022149	2
0	1531	1.513726435405	3
0	1538	1.522230435405	2
0	1538	1.522230435405	3
0	1551	1.530734435405	2
0	1551	1.530734435405	3
0	1564	1.539238435405	2
0	1564	1.539238435405	3
0	1577	1.547742435405	2
0	1577	1.547742435405	3
0	1590	1.556246435405	2
0	1590	1.556246435405	3
0	1599	1.564750435405	2
0	1608	1.564931605965	3
0	1616	1.573435605965	2
0	1616	1.573435605965	3
0	1629	1.581939605965	2
0	1629	1.581939605965	3
0	1638	1.590443605965	2
0	1647	1.591406961473	3
0	1651	1.599910961473	2
0	1662	1.616696332732	3
0	1677	1.625200332732	2
0	1677	1.625200332732	3
0	1685	1.633704332732	2
0	1685	1.633704332732	3
0	1702	1.642208332732	2
0	1702	1.642208332732	3
0	1711	1.650712332732	2
0	1711	1.650712332732	3
0	1720	1.659216332732	2
0	1720	1.659216332732	3
0	1729	1.667720332732	2
0	1739	1.676117797734	3
0	1751	1.684621797734	2
0	1751	1.684621797734	3
0	1767	1.693125797734	2
0	1767	1.693125797734	3
0	1776	1.701629797734	2
0	1776	1.701629797734	3
0	1785	1.710133797734	2
0	1785	1.710133797734	3
0	1794	1.718637797734	2
0	1805	1.736473424787	3
0	1812	1.744977424787	2
0	1812	1.744977424787	3
0	1824	1.753481424787	2
0	1824	1.753481424787	3
0	1841	1.761985424787	2
0	1841	1.761985424787	3
0	1854	1.770489424787	2
0	1854	1.770489424787	3
0	1867	1.778993424787	2
0	1867	1.778993424787	3
0	1876	1.787497424787	2
0	1876	1.787497424787	3
0	1889	1.796001424787	2
0	1889	1.796001424787	3
0	1898	1.804505424787	2
0	1909	1.82081322225	3
0	1916	1.82931722225	2
0	1916	1.82931722225	3
0	1932	1.83782122225	2
0	1932	1.83782122225	3
0	1941	1.84632522225	2
0	1941	1.84632522225	3
0	1954	1.85482922225	2
0	1954	1.85482922225	3
0	1963	1.86333322225	2
0	1974	1.874123814968	3
0	1985	1.882627814968	2
0	1985	1.882627814968	3
0	1997	1.891131814968	2
0	1997	1.891131814968	3
0	2006	1.899635814968	2
0	2006	1.899635814968	3
0	2015	1.908139814968	2
0	2026	1.931296945121	3
0	2033	1.939800945121	2
0	2033	1.939800945121	3
0	2049	1.948304945121	2
0	2049	1.948304945121	3
0	2070	1.956808945121	2
0	2070	1.956808945121	3
0	2079	1.965312945121	2
0	2079	1.965312945121	3
0	2092	1.973816945121	2
0	2092	1.973816945121	3
0	2101	1.982320945121	2
0	2101	1.982320945121	3
0	2110	1.990824945121	2
0	2110	1.990824945121	3
0	2119	1.999328945121	2
0	2129	2.004862429131	3
0	2133	2.013366429131	2
0	2142	2.021497925355	3
0	2150	2.030001925355	2
0	2150	2.030001925355	3
0	2162	2.038505925355	2
0	2162	2.038505925355	3
0	2183	2.047009925355	2
0	2183	2.047009925355	3
0	2196	2.055513925355	2
0	2196	2.055513925355	3
0	2205	2.064017925355	2
0	2205	2.064017925355	3
0	2214	2.072521925355	2
0	2214	2.072521925355	3
0	2227	2.081025925355	2
0	2227	2.081025925355	3
0	2236	2.089529925355	2
0	2247	2.111132802959	3
0	2250	2.119636802959	2
0	2259	2.122378467572	3
0	2263	2.130882467572	2
0	2272	2.1332740359	3
0	2276	2.1417780359	2
0	2285	2.151644010615	3
0	2293	2.160148010615	2
0	2293	2.160148010615	3
0	2305	2.168652010615	2
0	2305	2.168652010615	3
0	2318	2.177156010615	2
0	2318	2.177156010615	3
0	2327	2.185660010615	2
0	2338	2.233543848254	3
0	2345	2.242047848254	2
0	2345	2.242047848254	3
0	2353	2.250551848254	2
0	2362	2.250914619857	3
0	2366	2.259418619857	2
0	2377	2.274880683467	3
0	2380	2.283384683467	2
0	2389	2.291556808232	3
0	2393	2.300060808232	2
0	2403	2.331612020238	3
0	2406	2.340116020238	2
0	2415	2.341307780879	3
0	2426	2.349811780879	2
0	2426	2.349811780879	3
0	2439	2.358315780879	2
0	2439	2.358315780879	3
0	2452	2.366819780879	2
0	2452	2.366819780879	3
0	2465	2.375323780879	2
0	2465	2.375323780879	3
0	2474	2.383827780879	2
0	2474	2.383827780879	3
0	2483	2.392331780879	2
0	2494	2.409663947245	3
0	2497	2.418167947245	2
0	2506	2.423357602079	3
0	2518	2.431861602079	2
0	2518	2.431861602079	3
0	2530	2.440365602079	2
0	2530	2.440365602079	3
0	2539	2.448869602079	2
0	2539	2.448869602079	3
0	2548	2.457373602079	2
0	2557	2.458697727722	3
0	2561	2.467201727722	2
0	2572	2.503658063088	3
0	2575	2.512162063088	2
0	2584	2.515195337947	3
0	2588	2.523699337947	2
0	2597	2.524579046598	3
0	2600	2.533083046598	2
0	2611	2.547719368241	3
0	2614	2.556223368241	2
0	2623	2.564062548933	3
0	2631	2.572566548933	2
0	2631	2.572566548933	3
0	2639	2.581070548933	2
0	2649	2.585441584267	3
0	2653	2.593945584267	2
0	2662	2.596650308258	3
0	2666	2.605154308258	2
0	2675	2.611700747499	3
0	2683	2.620204747499	2
0	2683	2.620204747499	3
0	2695	2.628708747499	2
0	2695	2.628708747499	3
0	2704	2.637212747499	2
0	2715	2.655040920747	3
0	2726	2.663544920747	2
0	2726	2.663544920747	3
0	2734	2.672048920747	2
0	2734	2.672048920747	3
0	2743	2.680552920747	2
0	2753	2.685539049531	3
0	2757	2.694043049531	2
0	2767	2.713713174668	3
0	2770	2.722217174668	2
0	2779	2.726167375574	3
0	2787	2.734671375574	2
0	2787	2.734671375574	3
0	2803	2.743175375574	2
0	2803	2.743175375574	3
0	2820	2.751679375574	2
0	2820	2.751679375574	3
0	2829	2.760183375574	2
0	2829	2.760183375574	3
0	2838	2.768687375574	2
0	2838	2.768687375574	3
0	2851	2.777191375574	2
0	2851	2.777191375574	3
0	2860	2.785695375574	2
0	2870	2.790472393666	3
0	2878	2.798976393666	2
0	2878	2.798976393666	3
0	2890	2.807480393666	2
0	2890	2.807480393666	3
0	2899	2.815984393666	2
0	2909	2.82436292123	3
0	2917	2.83286692123	2
0	2917	2.83286692123	3
0	2925	2.84137092123	2
0	2936	2.85296356263	3
0	2943	2.86146756263	2
0	2943	2.86146756263	3
0	2951	2.86997156263	2
0	2962	2.895365861345	3
0	2969	2.903869861345	2
0	2969	2.903869861345	3
0	2977	2.912373861345	2
0	2987	2.917944333947	3
0	2995	2.926448333947	2
0	2995	2.926448333947	3
0	3003	2.934952333947	2
0	3012	2.93567849806	3
0	3016	2.94418249806	2
0	3026	2.948148965699	3
0	3038	2.956652965699	2
0	3038	2.956652965699	3
0	3046	2.965156965699	2
0	3046	2.965156965699	3
0	3059	2.973660965699	2
0	3059	2.973660965699	3
0	3068	2.982164965699	2
0	3078	2.989801370883	3
0	3082	2.998305370883	2
0	3091	3.003282896878	3
0	3103	3.011786896878	2
0	3103	3.011786896878	3
0	3111	3.020290896878	2
0	3111	3.020290896878	3
0	3124	3.028794896878	2
0	3124	3.028794896878	3
0	3137	3.037298896878	2
0	3137	3.037298896878	3
0	3146	3.045802896878	2
0	3156	3.053596019536	3
0	3172	3.062100019536	2
0	3172	3.062100019536	3
0	3180	3.070604019536	2
0	3180	3.070604019536	3
0	3197	3.079108019536	2
0	3197	3.079108019536	3
0	3206	3.087612019536	2
0	3206	3.087612019536	3
0	3223	3.096116019536	2
0	3223	3.096116019536	3
0	3236	3.104620019536	2
0	3236	3.104620019536	3
0	3249	3.113124019536	2
0	3249	3.113124019536	3
0	3258	3.121628019536	2
0	3258	3.121628019536	3
0	3275	3.130132019536	2
0	3275	3.130132019536	3
0	3292	3.138636019536	2
0	3292	3.138636019536	3
0	3301	3.147140019536	2
0	3301	3.147140019536	3
0	3318	3.155644019536	2
0	3318	3.155644019536	3
0	3335	3.164148019536	2
0	3335	3.164148019536	3
0	3344	3.172652019536	2
0	3344	3.172652019536	3
0	3353	3.181156019536	2
0	3353	3.181156019536	3
0	3366	3.189660019536	2
0	3366	3.189660019536	3
0	3375	3.198164019536	2
0	3375	3.198164019536	3
0	3384	3.206668019536	2
0	3384	3.206668019536	3
0	3393	3.215172019536	2
0	3404	3.231817329159	3
0	3407	3.240321329159	2
0	3416	3.246405614839	3
0	3424	3.254909614839	2
0	3424	3.254909614839	3
0	3436	3.263413614839	2
0	3436	3.263413614839	3
0	3449	3.271917614839	2
0	3449	3.271917614839	3
0	3458	3.280421614839	2
0	3468	3.286440807869	3
0	3472	3.294944807869	2
0	3481	3.297632150132	3
0	3489	3.306136150132	2
0	3489	3.306136150132	3
0	3501	3.314640150132	2
0	3501	3.314640150132	3
0	3510	3.323144150132	2
0	3521	3.333207156755	3
0	3528	3.341711156755	2
0	3528	3.341711156755	3
0	3536	3.350215156755	2
0	3546	3.356427624727	3
0	3554	3.364931624727	2
0	3554	3.364931624727	3
0	3562	3.373435624727	2
0	3572	3.379212300123	3
0	3580	3.387716300123	2
0	3580	3.387716300123	3
0	3588	3.396220300123	2
0	3599	3.409822694293	3
0	3606	3.418326694293	2
0	3606	3.418326694293	3
0	3614	3.426830694293	2
0	3624	3.430226758684	3
0	3628	3.438730758684	2
0	3638	3.474142646653	3
0	3641	3.482646646653	2
0	3651	3.497935633508	3
0	3654	3.506439633508	2
0	3663	3.516128460666	3
0	3667	3.524632460666	2
0	3677	3.566550773781	3
0	3680	3.575054773781	2
0	3689	3.583358882145	3
0	3701	3.591862882145	2
0	3701	3.591862882145	3
0	3717	3.600366882145	2
0	3717	3.600366882145	3
0	3730	3.608870882145	2
0	3730	3.608870882145	3
0	3747	3.617374882145	2
0	3747	3.617374882145	3
0	3756	3.625878882145	2
0	3756	3.625878882145	3
0	3765	3.634382882145	2
0	3765	3.634382882145	3
0	3774	3.642886882145	2
0	3774	3.642886882145	3
0	3783	3.651390882145	2
0	3793	3.659535528231	3
0	3801	3.668039528231	2
0	3801	3.668039528231	3
0	3813	3.676543528231	2
0	3813	3.676543528231	3
0	3826	3.685047528231	2
0	3826	3.685047528231	3
0	3835	3.693551528231	2
0	3845	3.699609561619	3
0	3853	3.708113561619	2
0	3853	3.708113561619	3
0	3865	3.716617561619	2
0	3865	3.716617561619	3
0	3882	3.725121561619	2
0	3882	3.725121561619	3
0	3891	3.733625561619	2
0	3891	3.733625561619	3
0	3904	3.742129561619	2
0	3904	3.742129561619	3
0	3913	3.750633561619	2
0	3924	3.770932757109	3
0	3931	3.779436757109	2
0	3931	3.779436757109	3
0	3939	3.787940757109	2
0	3950	3.81231310339	3
0	3957	3.82081710339	2
0	3957	3.82081710339	3
0	3973	3.82932110339	2
0	3973	3.82932110339	3
0	3982	3.83782510339	2
0	3982	3.83782510339	3
0	3991	3.84632910339	2
0	4001	3.851722278897	3
0	4009	3.860226278897	2
0	4009	3.860226278897	3
0	4017	3.868730278897	2
0	4026	3.868760976632	3
0	4030	3.877264976632	2
0	4041	3.888716566	3
0	4048	3.897220566	2
0	4048	3.897220566	3
0	4056	3.905724566	2
0	4066	3.912245729595	3
0	4070	3.920749729595	2
0	4080	3.933481167474	3
0	4091	3.941985167474	2
0	4091	3.941985167474	3
0	4103	3.950489167474	2
0	4103	3.950489167474	3
0	4116	3.958993167474	2
0	4116	3.958993167474	3
0	4129	3.967497167474	2
0	4129	3.967497167474	3
0	4142	3.976001167474	2
0	4142	3.976001167474	3
0	4155	3.984505167474	2
0	4155	3.984505167474	3
0	4168	3.993009167474	2
0	4168	3.993009167474	3
0	4181	4.001513167474	2
0	4181	4.001513167474	3
0	4190	4.010017167474	2
0	4190	4.010017167474	3
0	4203	4.018521167474	2
0	4203	4.018521167474	3
0	4216	4.027025167474	2
0	4216	4.027025167474	3
0	4225	4.035529167474	2
0	4235	4.044647904589	3
0	4239	4.053151904589	2
0	4248	4.053192001376	3
0	4255	4.061696001376	2
0	4255	4.061696001376	3
0	4272	4.070200001376	2
0	4272	4.070200001376	3
0	4281	4.078704001376	2
0	4281	4.078704001376	3
0	4290	4.087208001376	2
0	4300	4.092549644081	3
0	4304	4.101053644081	2
0	4313	4.106273931528	3
0	4329	4.114777931528	2
0	4329	4.114777931528	3
0	4337	4.123281931528	2
0	4337	4.123281931528	3
0	4346	4.131785931528	2
0	4346	4.131785931528	3
0	4363	4.140289931528	2
0	4363	4.140289931528	3
0	4372	4.148793931528	2
0	4372	4.148793931528	3
0	4385	4.157297931528	2
0	4385	4.157297931528	3
0	4394	4.165801931528	2
0	4405	4.187284295042	3
0	4408	4.195788295042	2
0	4417	4.202355016854	3
0	4425	4.210859016854	2
0	4425	4.210859016854	3
0	4437	4.219363016854	2
0	4437	4.219363016854	3
0	4446	4.227867016854	2
0	4457	4.243778810461	3
0	4464	4.252282810461	2
0	4464	4.252282810461	3
0	4480	4.260786810461	2
0	4480	4.260786810461	3
0	4493	4.269290810461	2
0	4493	4.269290810461	3
0	4502	4.277794810461	2
0	4502	4.277794810461	3
0	4511	4.286298810461	2
0	4520	4.286651080665	3
0	4524	4.295155080665	2
0	4534	4.296405860999	3
0	4545	4.304909860999	2
0	4545	4.304909860999	3
0	4558	4.313413860999	2
0	4558	4.313413860999	3
0	4567	4.321917860999	2
0	4567	4.321917860999	3
0	4588	4.330421860999	2
0	4588	4.330421860999	3
0	4605	4.338925860999	2
0	4605	4.338925860999	3
0	4622	4.347429860999	2
0	4622	4.347429860999	3
0	4631	4.355933860999	2
0	4631	4.355933860999	3
0	4640	4.364437860999	2
0	4640	4.364437860999	3
0	4649	4.372941860999	2
0	4649	4.372941860999	3
0	4666	4.381445860999	2
0	4666	4.381445860999	3
0	4675	4.389949860999	2
0	4675	4.389949860999	3
0	4688	4.398453860999	2
0	4688	4.398453860999	3
0	4697	4.406957860999	2
0	4697	4.406957860999	3
0	4706	4.415461860999	2
0	4716	4.418671516634	3
0	4728	4.427175516634	2
0	4728	4.427175516634	3
0	4740	4.435679516634	2
0	4740	4.435679516634	3
0	4749	4.444183516634	2
0	4749	4.444183516634	3
0	4762	4.452687516634	2
0	4762	4.452687516634	3
0	4779	4.461191516634	2
0	4779	4.461191516634	3
0	4788	4.469695516634	2
0	4788	4.469695516634	3
0	4801	4.478199516634	2
0	4801	4.478199516634	3
0	4810	4.486703516634	2
0	4820	4.493322167159	3
0	4836	4.501826167159	2
0	4836	4.501826167159	3
0	4848	4.510330167159	2
0	4848	4.510330167159	3
0	4857	4.518834167159	2
0	4857	4.518834167159	3
0	4866	4.527338167159	2
0	4866	4.527338167159	3
0	4875	4.535842167159	2
0	4886	4.546321263194	3
0	4889	4.554825263194	2
0	4898	4.556113485962	3
0	4905	4.564617485962	2
0	4905	4.564617485962	3
0	4918	4.573121485962	2
0	4918	4.573121485962	3
0	4927	4.581625485962	2
0	4938	4.592863512829	3
0	4945	4.601367512829	2
0	4945	4.601367512829	3
0	4953	4.609871512829	2
0	4964	4.653523964241	3
0	4975	4.662027964241	2
0	4975	4.662027964241	3
0	4987	4.670531964241	2
0	4987	4.670531964241	3
0	4996	4.679035964241	2
0	4996	4.679035964241	3
0	5005	4.687539964241	2
0	5016	4.703610581126	3
0	5019	4.712114581126	2
0	5029	4.736737834594	3
0	5036	4.745241834594	2
0	5036	4.745241834594	3
0	5044	4.753745834594	2
0	5054	4.759464862892	3
0	5058	4.767968862892	2
0	5067	4.775733485058	3
0	5079	4.784237485058	2
0	5079	4.784237485058	3
0	5091	4.792741485058	2
0	5091	4.792741485058	3
0	5104	4.801245485058	2
0	5104	4.801245485058	3
0	5117	4.809749485058	2
0	5117	4.809749485058	3
0	5126	4.818253485058	2
0	5126	4.818253485058	3
0	5139	4.826757485058	2
0	5139	4.826757485058	3
0	5148	4.835261485058	2
0	5157	4.835401380768	3
0	5161	4.843905380768	2
0	5171	4.849084727291	3
0	5175	4.857588727291	2
0	5184	4.860358751121	3
0	5208	4.868862751121	2
0	5208	4.868862751121	3
0	5216	4.877366751121	2
0	5216	4.877366751121	3
0	5225	4.885870751121	2
0	5225	4.885870751121	3
0	5238	4.894374751121	2
0	5238	4.894374751121	3
0	5251	4.902878751121	2
0	5251	4.902878751121	3
0	5264	4.911382751121	2
0	5264	4.911382751121	3
0	5277	4.919886751121	2
0	5277	4.919886751121	3
0	5286	4.928390751121	2
0	5286	4.928390751121	3
0	5303	4.936894751121	2
0	5303	4.936894751121	3
0	5316	4.945398751121	2
0	5316	4.945398751121	3
0	5325	4.953902751121	2
0	5325	4.953902751121	3
0	5338	4.962406751121	2
0	5338	4.962406751121	3
0	5351	4.970910751121	2
0	5351	4.970910751121	3
0	5364	4.979414751121	2
0	5364	4.979414751121	3
0	5373	4.987918751121	2
0	5373	4.987918751121	3
0	5382	4.996422751121	2
2	53	0.067183141128	1
2	53	0.067183141128	0
2	62	0.075687141128	1
2	73	0.085708627214	0
2	80	0.094212627214	1
2	80	0.094212627214	0
2	88	0.102716627214	1
2	97	0.103182913269	0
2	105	0.111686913269	1
2	105	0.111686913269	0
2	114	0.120190913269	1
2	125	0.14649593006	0
2	132	0.15499993006	1
2	132	0.15499993006	0
2	140	0.16350393006	1
2	150	0.172801406895	0
2	158	0.181305406895	1
2	158	0.181305406895	0
2	166	0.189809406895	1
2	177	0.199869941866	0
2	180	0.208373941866	1
2	189	0.20868951492	0
2	192	0.21719351492	1
2	202	0.222320782221	0
2	206	0.230824782221	1
2	215	0.237623514648	0
2	219	0.246127514648	1
2	228	0.248091368989	0
2	232	0.256595368989	1
2	241	0.257341384891	0
2	244	0.265845384891	1
2	254	0.274397761052	0
2	262	0.282901761052	1
2	262	0.282901761052	0
2	278	0.291405761052	1
2	278	0.291405761052	0
2	287	0.299909761052	1
2	287	0.299909761052	0
2	308	0.308413761052	1
2	308	0.308413761052	0
2	329	0.316917761052	1
2	329	0.316917761052	0
2	342	0.325421761052	1
2	342	0.325421761052	0
2	351	0.333925761052	1
2	351	0.333925761052	0
2	360	0.342429761052	1
2	360	0.342429761052	0
2	373	0.350933761052	1
2	373	0.350933761052	0
2	386	0.359437761052	1
2	386	0.359437761052	0
2	395	0.367941761052	1
2	395	0.367941761052	0
2	408	0.376445761052	1
2	408	0.376445761052	0
2	417	0.384949761052	1
2	417	0.384949761052	0
2	426	0.393453761052	1
2	436	0.396568227753	0
2	444	0.405072227753	1
2	444	0.405072227753	0
2	452	0.413576227753	1
2	463	0.439825526675	0
2	466	0.448329526675	1
2	475	0.452531536253	0
2	487	0.461035536253	1
2	487	0.461035536253	0
2	495	0.469539536253	1
2	495	0.469539536253	0
2	508	0.478043536253	1
2	508	0.478043536253	0
2	517	0.486547536253	1
2	526	0.488002748382	0
2	538	0.496506748382	1
2	538	0.496506748382	0
2	547	0.505010748382	1
2	547	0.505010748382	0
2	560	0.513514748382	1
2	560	0.513514748382	0
2	569	0.522018748382	1
2	580	0.543576108714	0
2	583	0.552080108714	1
2	592	0.556270025674	0
2	596	0.564774025674	1
2	605	0.568366256619	0
2	609	0.576870256619	1
2	619	0.632687460822	0
2	622	0.641191460822	1
2	631	0.643150451066	0
2	639	0.651654451066	1
2	639	0.651654451066	0
2	651	0.660158451066	1
2	651	0.660158451066	0
2	660	0.668662451066	1
2	669	0.669018968099	0
2	677	0.677522968099	1
2	677	0.677522968099	0
2	686	0.686026968099	1
2	695	0.687447002476	0
2	703	0.695951002476	1
2	703	0.695951002476	0
2	712	0.704455002476	1
2	722	0.710105296595	0
2	726	0.718609296595	1
2	736	0.745951575297	0
2	739	0.754455575297	1
2	748	0.758986807868	0
2	756	0.767490807868	1
2	756	0.767490807868	0
2	768	0.775994807868	1
2	768	0.775994807868	0
2	781	0.784498807868	1
2	781	0.784498807868	0
2	790	0.793002807868	1
2	801	0.827172838876	0
2	804	0.835676838876	1
2	814	0.852436694486	0
2	817	0.860940694486	1
2	826	0.860987697606	0
2	841	0.869491697606	1
2	841	0.869491697606	0
2	854	0.877995697606	1
2	854	0.877995697606	0
2	863	0.886499697606	1
2	863	0.886499697606	0
2	872	0.895003697606	1
2	872	0.895003697606	0
2	881	0.903507697606	1
2	892	0.922810647041	0
2	899	0.931314647041	1
2	899	0.931314647041	0
2	911	0.939818647041	1
2	911	0.939818647041	0
2	920	0.948322647041	1
2	930	0.950025918315	0
2	934	0.958529918315	1
2	944	0.975516764679	0
2	947	0.984020764679	1
2	1012	1.005563706076	0
2	1019	1.014067706076	1
2	1019	1.014067706076	0
2	1031	1.022571706076	1
2	1031	1.022571706076	0
2	1040	1.031075706076	1
2	1051	1.042529459916	0
2	1054	1.051033459916	1
2	1063	1.051064435163	0
2	1066	1.059568435163	1
2	1077	1.080891423447	0
2	1080	1.089395423447	1
2	1090	1.111375077543	0
2	1105	1.119879077543	1
2	1105	1.119879077543	0
2	1113	1.128383077543	1
2	1113	1.128383077543	0
2	1122	1.136887077543	1
2	1122	1.136887077543	0
2	1135	1.145391077543	1
2	1135	1.145391077543	0
2	1148	1.153895077543	1
2	1148	1.153895077543	0
2	1157	1.162399077543	1
2	1168	1.173197906645	0
2	1175	1.181701906645	1
2	1175	1.181701906645	0
2	1187	1.190205906645	1
2	1187	1.190205906645	0
2	1204	1.198709906645	1
2	1204	1.198709906645	0
2	1221	1.207213906645	1
2	1221	1.207213906645	0
2	1234	1.215717906645	1
2	1234	1.215717906645	0
2	1243	1.224221906645	1
2	1243	1.224221906645	0
2	1260	1.232725906645	1
2	1260	1.232725906645	0
2	1273	1.241229906645	1
2	1273	1.241229906645	0
2	1282	1.249733906645	1
2	1282	1.249733906645	0
2	1295	1.258237906645	1
2	1295	1.258237906645	0
2	1308	1.266741906645	1
2	1308	1.266741906645	0
2	1317	1.275245906645	1
2	1317	1.275245906645	0
2	1326	1.283749906645	1
2	1336	1.287999317888	0
2	1340	1.296503317888	1
2	1349	1.300223222648	0
2	1353	1.308727222648	1
2	1363	1.32688130543	0
2	1366	1.33538530543	1
2	1375	1.340556600992	0
2	1383	1.349060600992	1
2	1383	1.349060600992	0
2	1391	1.357564600992	1
2	1402	1.393829232723	0
2	1409	1.402333232723	1
2	1409	1.402333232723	0
2	1417	1.410837232723	1
2	1427	1.412793375194	0
2	1435	1.421297375194	1
2	1435	1.421297375194	0
2	1443	1.429801375194	1
2	1453	1.432665429355	0
2	1465	1.441169429355	1
2	1465	1.441169429355	0
2	1473	1.449673429355	1
2	1473	1.449673429355	0
2	1482	1.458177429355	1
2	1493	1.480995666614	0
2	1496	1.489499666614	1
2	1505	1.491650003539	0
2	1509	1.500154003539	1
2	1518	1.504584022149	0
2	1522	1.513088022149	1
2	1531	1.513726435405	0
2	1538	1.522230435405	1
2	1538	1.522230435405	0
2	1551	1.530734435405	1
2	1551	1.530734435405	0
2	1564	1.539238435405	1
2	1564	1.539238435405	0
2	1577	1.547742435405	1
2	1577	1.547742435405	0
2	1590	1.556246435405	1
2	1590	1.556246435405	0
2	1599	1.564750435405	1
2	1608	1.564931605965	0
2	1616	1.573435605965	1
2	1616	1.573435605965	0
2	1629	1.581939605965	1
2	1629	1.581939605965	0
2	1638	1.590443605965	1
2	1647	1.591406961473	0
2	1651	1.599910961473	1
2	1662	1.616696332732	0
2	1677	1.625200332732	1
2	1677	1.625200332732	0
2	1685	1.633704332732	1
2	1685	1.633704332732	0
2	1702	1.642208332732	1
2	1702	1.642208332732	0
2	1711	1.650712332732	1
2	1711	1.650712332732	0
2	1720	1.659216332732	1
2	1720	1.659216332732	0
2	1729	1.667720332732	1
2	1739	1.676117797734	0
2	1751	1.684621797734	1
2	1751	1.684621797734	0
2	1767	1.693125797734	1
2	1767	1.693125797734	0
2	1776	1.701629797734	1
2	1776	1.701629797734	0
2	1785	1.710133797734	1
2	1785	1.710133797734	0
2	1794	1.718637797734	1
2	1805	1.736473424787	0
2	1812	1.744977424787	1
2	1812	1.744977424787	0
2	1824	1.753481424787	1
2	1824	1.753481424787	0
2	1841	1.761985424787	1
2	1841	1.761985424787	0
2	1854	1.770489424787	1
2	1854	1.770489424787	0
2	1867	1.778993424787	1
2	1867	1.778993424787	0
2	1876	1.787497424787	1
2	1876	1.787497424787	0
2	1889	1.796001424787	1
2	1889	1.796001424787	0
2	1898	1.804505424787	1
2	1909	1.82081322225	0
2	1916	1.82931722225	1
2	1916	1.82931722225	0
2	1932	1.83782122225	1
2	1932	1.83782122225	0
2	1941	1.84632522225	1
2	1941	1.84632522225	0
2	1954	1.85482922225	1
2	1954	1.85482922225	0
2	1963	1.86333322225	1
2	1974	1.874123814968	0
2	1985	1.882627814968	1
2	1985	1.882627814968	0
2	1997	1.891131814968	1
2	1997	1.891131814968	0
2	2006	1.899635814968	1
2	2006	1.899635814968	0
2	2015	1.908139814968	1
2	2026	1.931296945121	0
2	2033	1.939800945121	1
2	2033	1.939800945121	0
2	2049	1.948304945121	1
2	2049	1.948304945121	0
2	2070	1.956808945121	1
2	2070	1.956808945121	0
2	2079	1.965312945121	1
2	2079	1.965312945121	0
2	2092	1.973816945121	1
2	2092	1.973816945121	0
2	2101	1.982320945121	1
2	2101	1.982320945121	0
2	2110	1.990824945121	1
2	2110	1.990824945121	0
2	2119	1.999328945121	1
2	2129	2.004862429131	0
2	2133	2.013366429131	1
2	2142	2.021497925355	0
2	2150	2.030001925355	1
2	2150	2.030001925355	0
2	2162	2.038505925355	1
2	2162	2.038505925355	0
2	2183	2.047009925355	1
2	2183	2.047009925355	0
2	2196	2.055513925355	1
2	2196	2.055513925355	0
2	2205	2.064017925355	1
2	2205	2.064017925355	0
2	2214	2.072521925355	1
2	2214	2.072521925355	0
2	2227	2.081025925355	1
2	2227	2.081025925355	0
2	2236	2.089529925355	1
2	2247	2.111132802959	0
2	2250	2.119636802959	1
2	2259	2.122378467572	0
2	2263	2.130882467572	1
2	2272	2.1332740359	0
2	2276	2.1417780359	1
2	2285	2.151644010615	0
2	2293	2.160148010615	1
2	2293	2.160148010615	0
2	2305	2.168652010615	1
2	2305	2.168652010615	0
2	2318	2.177156010615	1
2	2318	2.177156010615	0
2	2327	2.185660010615	1
2	2338	2.233543848254	0
2	2345	2.242047848254	1
2	2345	2.242047848254	0
2	2353	2.250551848254	1
2	2362	2.250914619857	0
2	2366	2.259418619857	1
2	2377	2.274880683467	0
2	2380	2.283384683467	1
2	2389	2.291556808232	0
2	2393	2.300060808232	1
2	2403	2.331612020238	0
2	2406	2.340116020238	1
2	2415	2.341307780879	0
2	2426	2.349811780879	1
2	2426	2.349811780879	0
2	2439	2.358315780879	1
2	2439	2.358315780879	0
2	2452	2.366819780879	1
2	2452	2.366819780879	0
2	2465	2.375323780879	1
2	2465	2.375323780879	0
2	2474	2.383827780879	1
2	2474	2.383827780879	0
2	2483	2.392331780879	1
2	2494	2.409663947245	0
2	2497	2.418167947245	1
2	2506	2.423357602079	0
2	2518	2.431861602079	1
2	2518	2.431861602079	0
2	2530	2.440365602079	1
2	2530	2.440365602079	0
2	2539	2.448869602079	1
2	2539	2.448869602079	0
2	2548	2.457373602079	1
2	2557	2.458697727722	0
2	2561	2.467201727722	1
2	2572	2.503658063088	0
2	2575	2.512162063088	1
2	2584	2.515195337947	0
2	2588	2.523699337947	1
2	2597	2.524579046598	0
2	2600	2.533083046598	1
2	2611	2.547719368241	0
2	2614	2.556223368241	1
2	2623	2.564062548933	0
2	2631	2.572566548933	1
2	2631	2.572566548933	0
2	2639	2.581070548933	1
2	2649	2.585441584267	0
2	2653	2.593945584267	1
2	2662	2.596650308258	0
2	2666	2.605154308258	1
2	2675	2.611700747499	0
2	2683	2.620204747499	1
2	2683	2.620204747499	0
2	2695	2.628708747499	1
2	2695	2.628708747499	0
2	2704	2.637212747499	1
2	2715	2.655040920747	0
2	2726	2.663544920747	1
2	2726	2.663544920747	0
2	2734	2.672048920747	1
2	2734	2.672048920747	0
2	2743	2.680552920747	1
2	2753	2.685539049531	0
2	2757	2.694043049531	1
2	2767	2.713713174668	0
2	2770	2.722217174668	1
2	2779	2.726167375574	0
2	2787	2.734671375574	1
2	2787	2.734671375574	0
2	2803	2.743175375574	1
2	2803	2.743175375574	0
2	2820	2.751679375574	1
2	2820	2.751679375574	0
2	2829	2.760183375574	1
2	2829	2.760183375574	0
2	2838	2.768687375574	1
2	2838	2.768687375574	0
2	2851	2.777191375574	1
2	2851	2.777191375574	0
2	2860	2.785695375574	1
2	2870	2.790472393666	0
2	2878	2.798976393666	1
2	2878	2.798976393666	0
2	2890	2.807480393666	1
2	2890	2.807480393666	0
2	2899	2.815984393666	1
2	2909	2.82436292123	0
2	2917	2.83286692123	1
2	2917	2.83286692123	0
2	2925	2.84137092123	1
2	2936	2.85296356263	0
2	2943	2.86146756263	1
2	2943	2.86146756263	0
2	2951	2.86997156263	1
2	2962	2.895365861345	0
2	2969	2.903869861345	1
2	2969	2.903869861345	0
2	2977	2.912373861345	1
2	2987	2.917944333947	0
2	2995	2.926448333947	1
2	2995	2.926448333947	0
2	3003	2.934952333947	1
2	3012	2.93567849806	0
2	3016	2.94418249806	1
2	3026	2.948148965699	0
2	3038	2.956652965699	1
2	3038	2.956652965699	0
2	3046	2.965156965699	1
2	3046	2.965156965699	0
2	3059	2.973660965699	1
2	3059	2.973660965699	0
2	3068	2.982164965699	1
2	3078	2.989801370883	0
2	3082	2.998305370883	1
2	3091	3.003282896878	0
2	3103	3.011786896878	1
2	3103	3.011786896878	0
2	3111	3.020290896878	1
2	3111	3.020290896878	0
2	3124	3.028794896878	1
2	3124	3.028794896878	0
2	3137	3.037298896878	1
2	3137	3.037298896878	0
2	3146	3.045802896878	1
2	3156	3.053596019536	0
2	3172	3.062100019536	1
2	3172	3.062100019536	0
2	3180	3.070604019536	1
2	3180	3.070604019536	0
2	3197	3.079108019536	1
2	3197	3.079108019536	0
2	3206	3.087612019536	1
2	3206	3.087612019536	0
2	3223	3.096116019536	1
2	3223	3.096116019536	0
2	3236	3.104620019536	1
2	3236	3.104620019536	0
2	3249	3.113124019536	1
2	3249	3.113124019536	0
2	3258	3.121628019536	1
2	3258	3.121628019536	0
2	3275	3.130132019536	1
2	3275	3.130132019536	0
2	3292	3.138636019536	1
2	3292	3.138636019536	0
2	3301	3.147140019536	1
2	3301	3.147140019536	0
2	3318	3.155644019536	1
2	3318	3.155644019536	0
2	3335	3.164148019536	1
2	3335	3.164148019536	0
2	3344	3.172652019536	1
2	3344	3.172652019536	0
2	3353	3.181156019536	1
2	3353	3.181156019536	0
2	3366	3.189660019536	1
2	3366	3.189660019536	0
2	3375	3.198164019536	1
2	3375	3.198164019536	0
2	3384	3.206668019536	1
2	3384	3.206668019536	0
2	3393	3.215172019536	1
2	3404	3.231817329159	0
2	3407	3.240321329159	1
2	3416	3.246405614839	0
2	3424	3.254909614839	1
2	3424	3.254909614839	0
2	3436	3.263413614839	1
2	3436	3.263413614839	0
2	3449	3.271917614839	1
2	3449	3.271917614839	0
2	3458	3.280421614839	1
2	3468	3.286440807869	0
2	3472	3.294944807869	1
2	3481	3.297632150132	0
2	3489	3.306136150132	1
2	3489	3.306136150132	0
2	3501	3.314640150132	1
2	3501	3.314640150132	0
2	3510	3.323144150132	1
2	3521	3.333207156755	0
2	3528	3.341711156755	1
2	3528	3.341711156755	0
2	3536	3.350215156755	1
2	3546	3.356427624727	0
2	3554	3.364931624727	1
2	3554	3.364931624727	0
2	3562	3.373435624727	1
2	3572	3.379212300123	0
2	3580	3.387716300123	1
2	3580	3.387716300123	0
2	3588	3.396220300123	1
2	3599	3.409822694293	0
2	3606	3.418326694293	1
2	3606	3.418326694293	0
2	3614	3.426830694293	1
2	3624	3.430226758684	0
2	3628	3.438730758684	1
2	3638	3.474142646653	0
2	3641	3.482646646653	1
2	3651	3.497935633508	0
2	3654	3.506439633508	1
2	3663	3.516128460666	0
2	3667	3.524632460666	1
2	3677	3.566550773781	0
2	3680	3.575054773781	1
2	3689	3.583358882145	0
2	3701	3.591862882145	1
2	3701	3.591862882145	0
2	3717	3.600366882145	1
2	3717	3.600366882145	0
2	3730	3.608870882145	1
2	3730	3.608870882145	0
2	3747	3.617374882145	1
2	3747	3.617374882145	0
2	3756	3.625878882145	1
2	3756	3.625878882145	0
2	3765	3.634382882145	1
2	3765	3.634382882145	0
2	3774	3.642886882145	1
2	3774	3.642886882145	0
2	3783	3.651390882145	1
2	3793	3.659535528231	0
2	3801	3.668039528231	1
2	3801	3.668039528231	0
2	3813	3.676543528231	1
2	3813	3.676543528231	0
2	3826	3.685047528231	1
2	3826	3.685047528231	0
2	3835	3.693551528231	1
2	3845	3.699609561619	0
2	3853	3.708113561619	1
2	3853	3.708113561619	0
2	3865	3.716617561619	1
2	3865	3.716617561619	0
2	3882	3.725121561619	1
2	3882	3.725121561619	0
2	3891	3.733625561619	1
2	3891	3.733625561619	0
2	3904	3.742129561619	1
2	3904	3.742129561619	0
2	3913	3.750633561619	1
2	3924	3.770932757109	0
2	3931	3.779436757109	1
2	3931	3.779436757109	0
2	3939	3.787940757109	1
2	3950	3.81231310339	0
2	3957	3.82081710339	1
2	3957	3.82081710339	0
2	3973	3.82932110339	1
2	3973	3.82932110339	0
2	3982	3.83782510339	1
2	3982	3.83782510339	0
2	3991	3.84632910339	1
2	4001	3.851722278897	0
2	4009	3.860226278897	1
2	4009	3.860226278897	0
2	4017	3.868730278897	1
2	4026	3.868760976632	0
2	4030	3.877264976632	1
2	4041	3.888716566	0
2	4048	3.897220566	1
2	4048	3.897220566	0
2	4056	3.905724566	1
2	4066	3.912245729595	0
2	4070	3.920749729595	1
2	4080	3.933481167474	0
2	4091	3.941985167474	1
2	4091	3.941985167474	0
2	4103	3.950489167474	1
2	4103	3.950489167474	0
2	4116	3.958993167474	1
2	4116	3.958993167474	0
2	4129	3.967497167474	1
2	4129	3.967497167474	0
2	4142	3.976001167474	1
2	4142	3.976001167474	0
2	4155	3.984505167474	1
2	4155	3.984505167474	0
2	4168	3.993009167474	1
2	4168	3.993009167474	0
2	4181	4.001513167474	1
2	4181	4.001513167474	0
2	4190	4.010017167474	1
2	4190	4.010017167474	0
2	4203	4.018521167474	1
2	4203	4.018521167474	0
2	4216	4.027025167474	1
2	4216	4.027025167474	0
2	4225	4.035529167474	1
2	4235	4.044647904589	0
2	4239	4.053151904589	1
2	4248	4.053192001376	0
2	4255	4.061696001376	1
2	4255	4.061696001376	0
2	4272	4.070200001376	1
2	4272	4.070200001376	0
2	4281	4.078704001376	1
2	4281	4.078704001376	0
2	4290	4.087208001376	1
2	4300	4.092549644081	0
2	4304	4.101053644081	1
2	4313	4.106273931528	0
2	4329	4.114777931528	1
2	4329	4.114777931528	0
2	4337	4.123281931528	1
2	4337	4.123281931528	0
2	4346	4.131785931528	1
2	4346	4.131785931528	0
2	4363	4.140289931528	1
2	4363	4.140289931528	0
2	4372	4.148793931528	1
2	4372	4.148793931528	0
2	4385	4.157297931528	1
2	4385	4.157297931528	0
2	4394	4.165801931528	1
2	4405	4.187284295042	0
2	4408	4.195788295042	1
2	4417	4.202355016854	0
2	4425	4.210859016854	1
2	4425	4.210859016854	0
2	4437	4.219363016854	1
2	4437	4.219363016854	0
2	4446	4.227867016854	1
2	4457	4.243778810461	0
2	4464	4.252282810461	1
2	4464	4.252282810461	0
2	4480	4.260786810461	1
2	4480	4.260786810461	0
2	4493	4.269290810461	1
2	4493	4.269290810461	0
2	4502	4.277794810461	1
2	4502	4.277794810461	0
2	4511	4.286298810461	1
2	4520	4.286651080665	0
2	4524	4.295155080665	1
2	4534	4.296405860999	0
2	4545	4.304909860999	1
2	4545	4.304909860999	0
2	4558	4.313413860999	1
2	4558	4.313413860999	0
2	4567	4.321917860999	1
2	4567	4.321917860999	0
2	4588	4.330421860999	1
2	4588	4.330421860999	0
2	4605	4.338925860999	1
2	4605	4.338925860999	0
2	4622	4.347429860999	1
2	4622	4.347429860999	0
2	4631	4.355933860999	1
2	4631	4.355933860999	0
2	4640	4.364437860999	1
2	4640	4.364437860999	0
2	4649	4.372941860999	1
2	4649	4.372941860999	0
2	4666	4.381445860999	1
2	4666	4.381445860999	0
2	4675	4.389949860999	1
2	4675	4.389949860999	0
2	4688	4.398453860999	1
2	4688	4.398453860999	0
2	4697	4.406957860999	1
2	4697	4.406957860999	0
2	4706	4.415461860999	1
2	4716	4.418671516634	0
2	4728	4.427175516634	1
2	4728	4.427175516634	0
2	4740	4.435679516634	1
2	4740	4.435679516634	0
2	4749	4.444183516634	1
2	4749	4.444183516634	0
2	4762	4.452687516634	1
2	4762	4.452687516634	0
2	4779	4.461191516634	1
2	4779	4.461191516634	0
2	4788	4.469695516634	1
2	4788	4.469695516634	0
2	4801	4.478199516634	1
2	4801	4.478199516634	0
2	4810	4.486703516634	1
2	4820	4.493322167159	0
2	4836	4.501826167159	1
2	4836	4.501826167159	0
2	4848	4.510330167159	1
2	4848	4.510330167159	0
2	4857	4.518834167159	1
2	4857	4.518834167159	0
2	4866	4.527338167159	1
2	4866	4.527338167159	0
2	4875	4.535842167159	1
2	4886	4.546321263194	0
2	4889	4.554825263194	1
2	4898	4.556113485962	0
2	4905	4.564617485962	1
2	4905	4.564617485962	0
2	4918	4.573121485962	1
2	4918	4.573121485962	0
2	4927	4.581625485962	1
2	4938	4.592863512829	0
2	4945	4.601367512829	1
2	4945	4.601367512829	0
2	4953	4.609871512829	1
2	4964	4.653523964241	0
2	4975	4.662027964241	1
2	4975	4.662027964241	0
2	4987	4.670531964241	1
2	4987	4.670531964241	0
2	4996	4.679035964241	1
2	4996	4.679035964241	0
2	5005	4.687539964241	1
2	5016	4.703610581126	0
2	5019	4.712114581126	1
2	5029	4.736737834594	0
2	5036	4.745241834594	1
2	5036	4.745241834594	0
2	5044	4.753745834594	1
2	5054	4.759464862892	0
2	5058	4.767968862892	1
2	5067	4.775733485058	0
2	5079	4.784237485058	1
2	5079	4.784237485058	0
2	5091	4.792741485058	1
2	5091	4.792741485058	0
2	5104	4.801245485058	1
2	5104	4.801245485058	0
2	5117	4.809749485058	1
2	5117	4.809749485058	0
2	5126	4.818253485058	1
2	5126	4.818253485058	0
2	5139	4.826757485058	1
2	5139	4.826757485058	0
2	5148	4.835261485058	1
2	5157	4.835401380768	0
2	5161	4.843905380768	1
2	5171	4.849084727291	0
2	5175	4.857588727291	1
2	5184	4.860358751121	0
2	5208	4.868862751121	1
2	5208	4.868862751121	0
2	5216	4.877366751121	1
2	5216	4.877366751121	0
2	5225	4.885870751121	1
2	5225	4.885870751121	0
2	5238	4.894374751121	1
2	5238	4.894374751121	0
2	5251	4.902878751121	1
2	5251	4.902878751121	0
2	5264	4.911382751121	1
2	5264	4.911382751121	0
2	5277	4.919886751121	1
2	5277	4.919886751121	0
2	5286	4.928390751121	1
2	5286	4.928390751121	0
2	5303	4.936894751121	1
2	5303	4.936894751121	0
2	5316	4.945398751121	1
2	5316	4.945398751121	0
2	5325	4.953902751121	1
2	5325	4.953902751121	0
2	5338	4.962406751121	1
2	5338	4.962406751121	0
2	5351	4.970910751121	1
2	5351	4.970910751121	0
2	5364	4.979414751121	1
2	5364	4.979414751121	0
2	5373	4.987918751121	1
2	5373	4.987918751121	0
2	5382	4.996422751121	1
3	43	0.058679615216	2
3	44	0.058679615216	3
3	55	0.067183615216	2
3	56	0.067183615216	3
3	63	0.075687615216	1
3	75	0.085709101302	3
3	82	0.094213101302	2
3	83	0.094213101302	3
3	89	0.102717101302	1
3	99	0.103183387357	3
3	107	0.111687387357	2
3	108	0.111687387357	3
3	115	0.120191387357	1
3	127	0.146496404148	3
3	134	0.155000404148	2
3	135	0.155000404148	3
3	141	0.163504404148	1
3	152	0.172801880983	3
3	160	0.181305880983	2
3	161	0.181305880983	3
3	167	0.189809880983	1
3	179	0.199870415954	3
3	181	0.208374415954	1
3	191	0.208689989008	3
3	193	0.217193989008	1
3	204	0.222321256309	3
3	207	0.230825256309	1
3	217	0.237623988736	3
3	220	0.246127988736	1
3	230	0.248091843077	3
3	233	0.256595843077	1
3	243	0.257341858979	3
3	245	0.265845858979	1
3	256	0.27439823514	3
3	264	0.28290223514	2
3	265	0.28290223514	3
3	280	0.29140623514	2
3	281	0.29140623514	3
3	289	0.29991023514	2
3	290	0.29991023514	3
3	310	0.30841423514	2
3	311	0.30841423514	3
3	331	0.31691823514	2
3	332	0.31691823514	3
3	344	0.32542223514	2
3	345	0.32542223514	3
3	353	0.33392623514	2
3	354	0.33392623514	3
3	362	0.34243023514	2
3	363	0.34243023514	3
3	375	0.35093423514	2
3	376	0.35093423514	3
3	388	0.35943823514	2
3	389	0.35943823514	3
3	397	0.36794223514	2
3	398	0.36794223514	3
3	410	0.37644623514	2
3	411	0.37644623514	3
3	419	0.38495023514	2
3	420	0.38495023514	3
3	427	0.39345423514	1
3	438	0.396568701841	3
3	446	0.405072701841	2
3	447	0.405072701841	3
3	453	0.413576701841	1
3	465	0.439826000763	3
3	467	0.448330000763	1
3	477	0.452532010341	3
3	489	0.461036010341	2
3	490	0.461036010341	3
3	497	0.469540010341	2
3	498	0.469540010341	3
3	510	0.478044010341	2
3	511	0.478044010341	3
3	518	0.486548010341	1
3	528	0.48800322247	3
3	540	0.49650722247	2
3	541	0.49650722247	3
3	549	0.50501122247	2
3	550	0.50501122247	3
3	562	0.51351522247	2
3	563	0.51351522247	3
3	570	0.52201922247	1
3	582	0.543576582802	3
3	584	0.552080582802	1
3	594	0.556270499762	3
3	597	0.564774499762	1
3	607	0.568366730707	3
3	610	0.576870730707	1
3	621	0.63268793491	3
3	623	0.64119193491	1
3	633	0.643150925154	3
3	641	0.651654925154	2
3	642	0.651654925154	3
3	653	0.660158925154	2
3	654	0.660158925154	3
3	661	0.668662925154	1
3	671	0.669019442187	3
3	679	0.677523442187	2
3	680	0.677523442187	3
3	687	0.686027442187	1
3	697	0.687447476564	3
3	705	0.695951476564	2
3	706	0.695951476564	3
3	713	0.704455476564	1
3	724	0.710105770683	3
3	727	0.718609770683	1
3	738	0.745952049385	3
3	740	0.754456049385	1
3	750	0.758987281956	3
3	758	0.767491281956	2
3	759	0.767491281956	3
3	770	0.775995281956	2
3	771	0.775995281956	3
3	783	0.784499281956	2
3	784	0.784499281956	3
3	791	0.793003281956	1
3	803	0.827173312964	3
3	805	0.835677312964	1
3	816	0.852437168574	3
3	818	0.860941168574	1
3	828	0.860988171694	3
3	843	0.869492171694	2
3	844	0.869492171694	3
3	856	0.877996171694	2
3	857	0.877996171694	3
3	865	0.886500171694	2
3	866	0.886500171694	3
3	874	0.895004171694	2
3	875	0.895004171694	3
3	882	0.903508171694	1
3	894	0.922811121129	3
3	901	0.931315121129	2
3	902	0.931315121129	3
3	913	0.939819121129	2
3	914	0.939819121129	3
3	921	0.948323121129	1
3	932	0.950026392403	3
3	935	0.958530392403	1
3	946	0.975517238767	3
3	948	0.984021238767	1
3	1014	1.005564180164	3
3	1021	1.014068180164	2
3	1022	1.014068180164	3
3	1033	1.022572180164	2
3	1034	1.022572180164	3
3	1041	1.031076180164	1
3	1053	1.042529934004	3
3	1055	1.051033934004	1
3	1065	1.051064909251	3
3	1067	1.059568909251	1
3	1079	1.080891897535	3
3	1081	1.089395897535	1
3	1092	1.111375551631	3
3	1107	1.119879551631	2
3	1108	1.119879551631	3
3	1115	1.128383551631	2
3	1116	1.128383551631	3
3	1124	1.136887551631	2
3	1125	1.136887551631	3
3	1137	1.145391551631	2
3	1138	1.145391551631	3
3	1150	1.153895551631	2
3	1151	1.153895551631	3
3	1158	1.162399551631	1
3	1170	1.173198380733	3
3	1177	1.181702380733	2
3	1178	1.181702380733	3
3	1189	1.190206380733	2
3	1190	1.190206380733	3
3	1206	1.198710380733	2
3	1207	1.198710380733	3
3	1223	1.207214380733	2
3	1224	1.207214380733	3
3	1236	1.215718380733	2
3	1237	1.215718380733	3
3	1245	1.224222380733	2
3	1246	1.224222380733	3
3	1262	1.232726380733	2
3	1263	1.232726380733	3
3	1275	1.241230380733	2
3	1276	1.241230380733	3
3	1284	1.249734380733	2
3	1285	1.249734380733	3
3	1297	1.258238380733	2
3	1298	1.258238380733	3
3	1310	1.266742380733	2
3	1311	1.266742380733	3
3	1319	1.275246380733	2
3	1320	1.275246380733	3
3	1327	1.283750380733	1
3	1338	1.287999791976	3
3	1341	1.296503791976	1
3	1351	1.300223696736	3
3	1354	1.308727696736	1
3	1365	1.326881779518	3
3	1367	1.335385779518	1
3	1377	1.34055707508	3
3	1385	1.34906107508	2
3	1386	1.34906107508	3
3	1392	1.35756507508	1
3	1404	1.393829706811	3
3	1411	1.402333706811	2
3	1412	1.402333706811	3
3	1418	1.410837706811	1
3	1429	1.412793849282	3
3	1437	1.421297849282	2
3	1438	1.421297849282	3
3	1444	1.429801849282	1
3	1455	1.432665903443	3
3	1467	1.441169903443	2
3	1468	1.441169903443	3
3	1475	1.449673903443	2
3	1476	1.449673903443	3
3	1483	1.458177903443	1
3	1495	1.480996140702	3
3	1497	1.489500140702	1
3	1507	1.491650477627	3
3	1510	1.500154477627	1
3	1520	1.504584496237	3
3	1523	1.513088496237	1
3	1533	1.513726909493	3
3	1540	1.522230909493	2
3	1541	1.522230909493	3
3	1553	1.530734909493	2
3	1554	1.530734909493	3
3	1566	1.539238909493	2
3	1567	1.539238909493	3
3	1579	1.547742909493	2
3	1580	1.547742909493	3
3	1592	1.556246909493	2
3	1593	1.556246909493	3
3	1600	1.564750909493	1
3	1610	1.564932080053	3
3	1618	1.573436080053	2
3	1619	1.573436080053	3
3	1631	1.581940080053	2
3	1632	1.581940080053	3
3	1639	1.590444080053	1
3	1649	1.591407435561	3
3	1652	1.599911435561	1
3	1664	1.61669680682	3
3	1679	1.62520080682	2
3	1680	1.62520080682	3
3	1687	1.63370480682	2
3	1688	1.63370480682	3
3	1704	1.64220880682	2
3	1705	1.64220880682	3
3	1713	1.65071280682	2
3	1714	1.65071280682	3
3	1722	1.65921680682	2
3	1723	1.65921680682	3
3	1730	1.66772080682	1
3	1741	1.676118271822	3
3	1753	1.684622271822	2
3	1754	1.684622271822	3
3	1769	1.693126271822	2
3	1770	1.693126271822	3
3	1778	1.701630271822	2
3	1779	1.701630271822	3
3	1787	1.710134271822	2
3	1788	1.710134271822	3
3	1795	1.718638271822	1
3	1807	1.736473898875	3
3	1814	1.744977898875	2
3	1815	1.744977898875	3
3	1826	1.753481898875	2
3	1827	1.753481898875	3
3	1843	1.761985898875	2
3	1844	1.761985898875	3
3	1856	1.770489898875	2
3	1857	1.770489898875	3
3	1869	1.778993898875	2
3	1870	1.778993898875	3
3	1878	1.787497898875	2
3	1879	1.787497898875	3
3	1891	1.796001898875	2
3	1892	1.796001898875	3
3	1899	1.804505898875	1
3	1911	1.820813696338	3
3	1918	1.829317696338	2
3	1919	1.829317696338	3
3	1934	1.837821696338	2
3	1935	1.837821696338	3
3	1943	1.846325696338	2
3	1944	1.846325696338	3
3	1956	1.854829696338	2
3	1957	1.854829696338	3
3	1964	1.863333696338	1
3	1976	1.874124289056	3
3	1987	1.882628289056	2
3	1988	1.882628289056	3
3	1999	1.891132289056	2
3	2000	1.891132289056	3
3	2008	1.899636289056	2
3	2009	1.899636289056	3
3	2016	1.908140289056	1
3	2028	1.931297419209	3
3	2035	1.939801419209	2
3	2036	1.939801419209	3
3	2051	1.948305419209	2
3	2052	1.948305419209	3
3	2072	1.956809419209	2
3	2073	1.956809419209	3
3	2081	1.965313419209	2
3	2082	1.965313419209	3
3	2094	1.973817419209	2
3	2095	1.973817419209	3
3	2103	1.982321419209	2
3	2104	1.982321419209	3
3	2112	1.990825419209	2
3	2113	1.990825419209	3
3	2120	1.999329419209	1
3	2131	2.004862903219	3
3	2134	2.013366903219	1
3	2144	2.021498399443	3
3	2152	2.030002399443	2
3	2153	2.030002399443	3
3	2164	2.038506399443	2
3	2165	2.038506399443	3
3	2185	2.047010399443	2
3	2186	2.047010399443	3
3	2198	2.055514399443	2
3	2199	2.055514399443	3
3	2207	2.064018399443	2
3	2208	2.064018399443	3
3	2216	2.072522399443	2
3	2217	2.072522399443	3
3	2229	2.081026399443	2
3	2230	2.081026399443	3
3	2237	2.089530399443	1
3	2249	2.111133277047	3
3	2251	2.119637277047	1
3	2261	2.12237894166	3
3	2264	2.13088294166	1
3	2274	2.133274509988	3
3	2277	2.141778509988	1
3	2287	2.151644484703	3
3	2295	2.160148484703	2
3	2296	2.160148484703	3
3	2307	2.168652484703	2
3	2308	2.168652484703	3
3	2320	2.177156484703	2
3	2321	2.177156484703	3
3	2328	2.185660484703	1
3	2340	2.233544322342	3
3	2347	2.242048322342	2
3	2348	2.242048322342	3
3	2354	2.250552322342	1
3	2364	2.250915093945	3
3	2367	2.259419093945	1
3	2379	2.274881157555	3
3	2381	2.283385157555	1
3	2391	2.29155728232	3
3	2394	2.30006128232	1
3	2405	2.331612494326	3
3	2407	2.340116494326	1
3	2417	2.341308254967	3
3	2428	2.349812254967	2
3	2429	2.349812254967	3
3	2441	2.358316254967	2
3	2442	2.358316254967	3
3	2454	2.366820254967	2
3	2455	2.366820254967	3
3	2467	2.375324254967	2
3	2468	2.375324254967	3
3	2476	2.383828254967	2
3	2477	2.383828254967	3
3	2484	2.392332254967	1
3	2496	2.409664421333	3
3	2498	2.418168421333	1
3	2508	2.423358076167	3
3	2520	2.431862076167	2
3	2521	2.431862076167	3
3	2532	2.440366076167	2
3	2533	2.440366076167	3
3	2541	2.448870076167	2
3	2542	2.448870076167	3
3	2549	2.457374076167	1
3	2559	2.45869820181	3
3	2562	2.46720220181	1
3	2574	2.503658537176	3
3	2576	2.512162537176	1
3	2586	2.515195812035	3
3	2589	2.523699812035	1
3	2599	2.524579520686	3
3	2601	2.533083520686	1
3	2613	2.547719842329	3
3	2615	2.556223842329	1
3	2625	2.564063023021	3
3	2633	2.572567023021	2
3	2634	2.572567023021	3
3	2640	2.581071023021	1
3	2651	2.585442058355	3
3	2654	2.593946058355	1
3	2664	2.596650782346	3
3	2667	2.605154782346	1
3	2677	2.611701221587	3
3	2685	2.620205221587	2
3	2686	2.620205221587	3
3	2697	2.628709221587	2
3	2698	2.628709221587	3
3	2705	2.637213221587	1
3	2717	2.655041394835	3
3	2728	2.663545394835	2
3	2729	2.663545394835	3
3	2736	2.672049394835	2
3	2737	2.672049394835	3
3	2744	2.680553394835	1
3	2755	2.685539523619	3
3	2758	2.694043523619	1
3	2769	2.713713648756	3
3	2771	2.722217648756	1
3	2781	2.726167849662	3
3	2789	2.734671849662	2
3	2790	2.734671849662	3
3	2805	2.743175849662	2
3	2806	2.743175849662	3
3	2822	2.751679849662	2
3	2823	2.751679849662	3
3	2831	2.760183849662	2
3	2832	2.760183849662	3
3	2840	2.768687849662	2
3	2841	2.768687849662	3
3	2853	2.777191849662	2
3	2854	2.777191849662	3
3	2861	2.785695849662	1
3	2872	2.790472867754	3
3	2880	2.798976867754	2
3	2881	2.798976867754	3
3	2892	2.807480867754	2
3	2893	2.807480867754	3
3	2900	2.815984867754	1
3	2911	2.824363395318	3
3	2919	2.832867395318	2
3	2920	2.832867395318	3
3	2926	2.841371395318	1
3	2938	2.852964036718	3
3	2945	2.861468036718	2
3	2946	2.861468036718	3
3	2952	2.869972036718	1
3	2964	2.895366335433	3
3	2971	2.903870335433	2
3	2972	2.903870335433	3
3	2978	2.912374335433	1
3	2989	2.917944808035	3
3	2997	2.926448808035	2
3	2998	2.926448808035	3
3	3004	2.934952808035	1
3	3014	2.935678972148	3
3	3017	2.944182972148	1
3	3028	2.948149439787	3
3	3040	2.956653439787	2
3	3041	2.956653439787	3
3	3048	2.965157439787	2
3	3049	2.965157439787	3
3	3061	2.973661439787	2
3	3062	2.973661439787	3
3	3069	2.982165439787	1
3	3080	2.989801844971	3
3	3083	2.998305844971	1
3	3093	3.003283370966	3
3	3105	3.011787370966	2
3	3106	3.011787370966	3
3	3113	3.020291370966	2
3	3114	3.020291370966	3
3	3126	3.028795370966	2
3	3127	3.028795370966	3
3	3139	3.037299370966	2
3	3140	3.037299370966	3
3	3147	3.045803370966	1
3	3158	3.053596493624	3
3	3174	3.062100493624	2
3	3175	3.062100493624	3
3	3182	3.070604493624	2
3	3183	3.070604493624	3
3	3199	3.079108493624	2
3	3200	3.079108493624	3
3	3208	3.087612493624	2
3	3209	3.087612493624	3
3	3225	3.096116493624	2
3	3226	3.096116493624	3
3	3238	3.104620493624	2
3	3239	3.104620493624	3
3	3251	3.113124493624	2
3	3252	3.113124493624	3
3	3260	3.121628493624	2
3	3261	3.121628493624	3
3	3277	3.130132493624	2
3	3278	3.130132493624	3
3	3294	3.138636493624	2
3	3295	3.138636493624	3
3	3303	3.147140493624	2
3	3304	3.147140493624	3
3	3320	3.155644493624	2
3	3321	3.155644493624	3
3	3337	3.164148493624	2
3	3338	3.164148493624	3
3	3346	3.172652493624	2
3	3347	3.172652493624	3
3	3355	3.181156493624	2
3	3356	3.181156493624	3
3	3368	3.189660493624	2
3	3369	3.189660493624	3
3	3377	3.198164493624	2
3	3378	3.198164493624	3
3	3386	3.206668493624	2
3	3387	3.206668493624	3
3	3394	3.215172493624	1
3	3406	3.231817803247	3
3	3408	3.240321803247	1
3	3418	3.246406088927	3
3	3426	3.254910088927	2
3	3427	3.254910088927	3
3	3438	3.263414088927	2
3	3439	3.263414088927	3
3	3451	3.271918088927	2
3	3452	3.271918088927	3
3	3459	3.280422088927	1
3	3470	3.286441281957	3
3	3473	3.294945281957	1
3	3483	3.29763262422	3
3	3491	3.30613662422	2
3	3492	3.30613662422	3
3	3503	3.31464062422	2
3	3504	3.31464062422	3
3	3511	3.32314462422	1
3	3523	3.333207630843	3
3	3530	3.341711630843	2
3	3531	3.341711630843	3
3	3537	3.350215630843	1
3	3548	3.356428098815	3
3	3556	3.364932098815	2
3	3557	3.364932098815	3
3	3563	3.373436098815	1
3	3574	3.379212774211	3
3	3582	3.387716774211	2
3	3583	3.387716774211	3
3	3589	3.396220774211	1
3	3601	3.409823168381	3
3	3608	3.418327168381	2
3	3609	3.418327168381	3
3	3615	3.426831168381	1
3	3626	3.430227232772	3
3	3629	3.438731232772	1
3	3640	3.474143120741	3
3	3642	3.482647120741	1
3	3653	3.497936107596	3
3	3655	3.506440107596	1
3	3665	3.516128934754	3
3	3668	3.524632934754	1
3	3679	3.566551247869	3
3	3681	3.575055247869	1
3	3691	3.583359356233	3
3	3703	3.591863356233	2
3	3704	3.591863356233	3
3	3719	3.600367356233	2
3	3720	3.600367356233	3
3	3732	3.608871356233	2
3	3733	3.608871356233	3
3	3749	3.617375356233	2
3	3750	3.617375356233	3
3	3758	3.625879356233	2
3	3759	3.625879356233	3
3	3767	3.634383356233	2
3	3768	3.634383356233	3
3	3776	3.642887356233	2
3	3777	3.642887356233	3
3	3784	3.651391356233	1
3	3795	3.659536002319	3
3	3803	3.668040002319	2
3	3804	3.668040002319	3
3	3815	3.676544002319	2
3	3816	3.676544002319	3
3	3828	3.685048002319	2
3	3829	3.685048002319	3
3	3836	3.693552002319	1
3	3847	3.699610035707	3
3	3855	3.708114035707	2
3	3856	3.708114035707	3
3	3867	3.716618035707	2
3	3868	3.716618035707	3
3	3884	3.725122035707	2
3	3885	3.725122035707	3
3	3893	3.733626035707	2
3	3894	3.733626035707	3
3	3906	3.742130035707	2
3	3907	3.742130035707	3
3	3914	3.750634035707	1
3	3926	3.770933231197	3
3	3933	3.779437231197	2
3	3934	3.779437231197	3
3	3940	3.787941231197	1
3	3952	3.812313577478	3
3	3959	3.820817577478	2
3	3960	3.820817577478	3
3	3975	3.829321577478	2
3	3976	3.829321577478	3
3	3984	3.837825577478	2
3	3985	3.837825577478	3
3	3992	3.846329577478	1
3	4003	3.851722752985	3
3	4011	3.860226752985	2
3	4012	3.860226752985	3
3	4018	3.868730752985	1
3	4028	3.86876145072	3
3	4031	3.87726545072	1
3	4043	3.888717040088	3
3	4050	3.897221040088	2
3	4051	3.897221040088	3
3	4057	3.905725040088	1
3	4068	3.912246203683	3
3	4071	3.920750203683	1
3	4082	3.933481641562	3
3	4093	3.941985641562	2
3	4094	3.941985641562	3
3	4105	3.950489641562	2
3	4106	3.950489641562	3
3	4118	3.958993641562	2
3	4119	3.958993641562	3
3	4131	3.967497641562	2
3	4132	3.967497641562	3
3	4144	3.976001641562	2
3	4145	3.976001641562	3
3	4157	3.984505641562	2
3	4158	3.984505641562	3
3	4170	3.993009641562	2
3	4171	3.993009641562	3
3	4183	4.001513641562	2
3	4184	4.001513641562	3
3	4192	4.010017641562	2
3	4193	4.010017641562	3
3	4205	4.018521641562	2
3	4206	4.018521641562	3
3	4218	4.027025641562	2
3	4219	4.027025641562	3
3	4226	4.035529641562	1
3	4237	4.044648378677	3
3	4240	4.053152378677	1
3	4250	4.053192475464	3
3	4257	4.061696475464	2
3	4258	4.061696475464	3
3	4274	4.070200475464	2
3	4275	4.070200475464	3
3	4283	4.078704475464	2
3	4284	4.078704475464	3
3	4291	4.087208475464	1
3	4302	4.092550118169	3
3	4305	4.101054118169	1
3	4315	4.106274405616	3
3	4331	4.114778405616	2
3	4332	4.114778405616	3
3	4339	4.123282405616	2
3	4340	4.123282405616	3
3	4348	4.131786405616	2
3	4349	4.131786405616	3
3	4365	4.140290405616	2
3	4366	4.140290405616	3
3	4374	4.148794405616	2
3	4375	4.148794405616	3
3	4387	4.157298405616	2
3	4388	4.157298405616	3
3	4395	4.165802405616	1
3	4407	4.18728476913	3
3	4409	4.19578876913	1
3	4419	4.202355490942	3
3	4427	4.210859490942	2
3	4428	4.210859490942	3
3	4439	4.219363490942	2
3	4440	4.219363490942	3
3	4447	4.227867490942	1
3	4459	4.243779284549	3
3	4466	4.252283284549	2
3	4467	4.252283284549	3
3	4482	4.260787284549	2
3	4483	4.260787284549	3
3	4495	4.269291284549	2
3	4496	4.269291284549	3
3	4504	4.277795284549	2
3	4505	4.277795284549	3
3	4512	4.286299284549	1
3	4522	4.286651554753	3
3	4525	4.295155554753	1
3	4536	4.296406335087	3
3	4547	4.304910335087	2
3	4548	4.304910335087	3
3	4560	4.313414335087	2
3	4561	4.313414335087	3
3	4569	4.321918335087	2
3	4570	4.321918335087	3
3	4590	4.330422335087	2
3	4591	4.330422335087	3
3	4607	4.338926335087	2
3	4608	4.338926335087	3
3	4624	4.347430335087	2
3	4625	4.347430335087	3
3	4633	4.355934335087	2
3	4634	4.355934335087	3
3	4642	4.364438335087	2
3	4643	4.364438335087	3
3	4651	4.372942335087	2
3	4652	4.372942335087	3
3	4668	4.381446335087	2
3	4669	4.381446335087	3
3	4677	4.389950335087	2
3	4678	4.389950335087	3
3	4690	4.398454335087	2
3	4691	4.398454335087	3
3	4699	4.406958335087	2
3	4700	4.406958335087	3
3	4707	4.415462335087	1
3	4718	4.418671990722	3
3	4730	4.427175990722	2
3	4731	4.427175990722	3
3	4742	4.435679990722	2
3	4743	4.435679990722	3
3	4751	4.444183990722	2
3	4752	4.444183990722	3
3	4764	4.452687990722	2
3	4765	4.452687990722	3
3	4781	4.461191990722	2
3	4782	4.461191990722	3
3	4790	4.469695990722	2
3	4791	4.469695990722	3
3	4803	4.478199990722	2
3	4804	4.478199990722	3
3	4811	4.486703990722	1
3	4822	4.493322641247	3
3	4838	4.501826641247	2
3	4839	4.501826641247	3
3	4850	4.510330641247	2
3	4851	4.510330641247	3
3	4859	4.518834641247	2
3	4860	4.518834641247	3
3	4868	4.527338641247	2
3	4869	4.527338641247	3
3	4876	4.535842641247	1
3	4888	4.546321737282	3
3	4890	4.554825737282	1
3	4900	4.55611396005	3
3	4907	4.56461796005	2
3	4908	4.56461796005	3
3	4920	4.57312196005	2
3	4921	4.57312196005	3
3	4928	4.58162596005	1
3	4940	4.592863986917	3
3	4947	4.601367986917	2
3	4948	4.601367986917	3
3	4954	4.609871986917	1
3	4966	4.653524438329	3
3	4977	4.662028438329	2
3	4978	4.662028438329	3
3	4989	4.670532438329	2
3	4990	4.670532438329	3
3	4998	4.679036438329	2
3	4999	4.679036438329	3
3	5006	4.687540438329	1
3	5018	4.703611055214	3
3	5020	4.712115055214	1
3	5031	4.736738308682	3
3	5038	4.745242308682	2
3	5039	4.745242308682	3
3	5045	4.753746308682	1
3	5056	4.75946533698	3
3	5059	4.76796933698	1
3	5069	4.775733959146	3
3	5081	4.784237959146	2
3	5082	4.784237959146	3
3	5093	4.792741959146	2
3	5094	4.792741959146	3
3	5106	4.801245959146	2
3	5107	4.801245959146	3
3	5119	4.809749959146	2
3	5120	4.809749959146	3
3	5128	4.818253959146	2
3	5129	4.818253959146	3
3	5141	4.826757959146	2
3	5142	4.826757959146	3
3	5149	4.835261959146	1
3	5159	4.835401854856	3
3	5162	4.843905854856	1
3	5173	4.849085201379	3
3	5176	4.857589201379	1
3	5186	4.860359225209	3
3	5210	4.868863225209	2
3	5211	4.868863225209	3
3	5218	4.877367225209	2
3	5219	4.877367225209	3
3	5227	4.885871225209	2
3	5228	4.885871225209	3
3	5240	4.894375225209	2
3	5241	4.894375225209	3
3	5253	4.902879225209	2
3	5254	4.902879225209	3
3	5266	4.911383225209	2
3	5267	4.911383225209	3
3	5279	4.919887225209	2
3	5280	4.919887225209	3
3	5288	4.928391225209	2
3	5289	4.928391225209	3
3	5305	4.936895225209	2
3	5306	4.936895225209	3
3	5318	4.945399225209	2
3	5319	4.945399225209	3
3	5327	4.953903225209	2
3	5328	4.953903225209	3
3	5340	4.962407225209	2
3	5341	4.962407225209	3
3	5353	4.970911225209	2
3	5354	4.970911225209	3
3	5366	4.979415225209	2
3	5367	4.979415225209	3
3	5375	4.987919225209	2
3	5376	4.987919225209	3
3	5383	4.996423225209	1
4	49	0.064008196043	1000
4	70	0.085708627214	1000
4	76	0.090647563169	1000
4	94	0.103182913269	1000
4	101	0.108693890916	1000
4	122	0.14649593006	1000
4	128	0.148310700304	1000
4	147	0.172801406895	1000
4	154	0.180501916967	1000
4	174	0.199869941866	1000
4	186	0.20868951492	1000
4	199	0.222320782221	1000
4	212	0.237623514648	1000
4	225	0.248091368989	1000
4	238	0.257341384891	1000
4	251	0.274397761052	1000
4	257	0.27574111498	1000
4	270	0.283441451404	1000
4	274	0.285915890788	1000
4	296	0.301939373003	1000
4	300	0.304867954892	1000
4	304	0.30661129122	1000
4	317	0.311312540948	1000
4	321	0.313258178821	1000
4	325	0.316275482006	1000
4	338	0.322138166598	1000
4	369	0.350085127089	1000
4	382	0.357258080011	1000
4	403	0.368652015013	1000
4	433	0.396568227753	1000
4	439	0.397822962462	1000
4	460	0.439825526675	1000
4	472	0.452531536253	1000
4	478	0.454780649045	1000
4	483	0.460101497388	1000
4	504	0.476770009665	1000
4	523	0.488002748382	1000
4	530	0.49272009907	1000
4	534	0.493190296947	1000
4	555	0.505260749009	1000
4	577	0.543576108714	1000
4	589	0.556270025674	1000
4	602	0.568366256619	1000
4	616	0.632687460822	1000
4	628	0.643150451066	1000
4	634	0.649571227191	1000
4	647	0.65729659921	1000
4	666	0.669018968099	1000
4	673	0.673968982858	1000
4	692	0.687447002476	1000
4	699	0.692025672596	1000
4	719	0.710105296595	1000
4	733	0.745951575297	1000
4	745	0.758986807868	1000
4	751	0.759150782809	1000
4	764	0.770852006019	1000
4	777	0.784289778408	1000
4	798	0.827172838876	1000
4	811	0.852436694486	1000
4	823	0.860987697606	1000
4	829	0.861675620723	1000
4	833	0.868874983363	1000
4	837	0.869117264901	1000
4	850	0.876111805567	1000
4	889	0.922810647041	1000
4	895	0.928155680584	1000
4	907	0.936023435996	1000
4	927	0.950025918315	1000
4	941	0.975516764679	1000
4	1009	1.005563706076	1000
4	1015	1.008496451453	1000
4	1027	1.018490573646	1000
4	1048	1.042529459916	1000
4	1060	1.051064435163	1000
4	1074	1.080891423447	1000
4	1087	1.111375077543	1000
4	1093	1.112416323331	1000
4	1097	1.116320408317	1000
4	1101	1.116433217325	1000
4	1131	1.138601149137	1000
4	1144	1.151102516987	1000
4	1165	1.173197906645	1000
4	1171	1.17688811933	1000
4	1183	1.182974520809	1000
4	1196	1.192632089607	1000
4	1200	1.194795116631	1000
4	1213	1.200335887384	1000
4	1217	1.202235985459	1000
4	1230	1.212352981845	1000
4	1252	1.226951085686	1000
4	1256	1.231035246545	1000
4	1269	1.237850096387	1000
4	1291	1.254782389299	1000
4	1304	1.260834514978	1000
4	1333	1.287999317888	1000
4	1346	1.300223222648	1000
4	1360	1.32688130543	1000
4	1372	1.340556600992	1000
4	1379	1.347713153724	1000
4	1399	1.393829232723	1000
4	1405	1.395311552491	1000
4	1424	1.412793375194	1000
4	1430	1.419162045153	1000
4	1450	1.432665429355	1000
4	1456	1.436114355068	1000
4	1461	1.440623221177	1000
4	1490	1.480995666614	1000
4	1502	1.491650003539	1000
4	1515	1.504584022149	1000
4	1528	1.513726435405	1000
4	1534	1.516871122305	1000
4	1546	1.522898851884	1000
4	1560	1.53447229467	1000
4	1573	1.54220155117	1000
4	1586	1.549823083758	1000
4	1605	1.564931605965	1000
4	1612	1.569007582756	1000
4	1625	1.574811210995	1000
4	1644	1.591406961473	1000
4	1659	1.616696332732	1000
4	1665	1.617998897914	1000
4	1669	1.619161970969	1000
4	1673	1.624406307134	1000
4	1693	1.634036930963	1000
4	1697	1.634447371983	1000
4	1736	1.676117797734	1000
4	1743	1.68076335884	1000
4	1747	1.68376433678	1000
4	1759	1.685591860283	1000
4	1763	1.686819707661	1000
4	1802	1.736473424787	1000
4	1808	1.740092215746	1000
4	1820	1.749333138061	1000
4	1833	1.756462020041	1000
4	1837	1.757720602068	1000
4	1849	1.762932749939	1000
4	1862	1.770534301352	1000
4	1885	1.792611094773	1000
4	1906	1.82081322225	1000
4	1912	1.821272617205	1000
4	1924	1.829791632332	1000
4	1928	1.831982095555	1000
4	1950	1.850099977022	1000
4	1971	1.874123814968	1000
4	1977	1.880483849506	1000
4	1981	1.882293341628	1000
4	1993	1.882698783055	1000
4	2023	1.931296945121	1000
4	2029	1.936904215918	1000
4	2041	1.943442501456	1000
4	2045	1.944065452082	1000
4	2057	1.94952439422	1000
4	2061	1.949725607412	1000
4	2066	1.952873559122	1000
4	2088	1.970247088106	1000
4	2126	2.004862429131	1000
4	2139	2.021497925355	1000
4	2146	2.026473275867	1000
4	2158	2.034542802069	1000
4	2170	2.039510549141	1000
4	2175	2.041884503231	1000
4	2179	2.044134730645	1000
4	2192	2.051605898773	1000
4	2223	2.076518271498	1000
4	2244	2.111132802959	1000
4	2256	2.122378467572	1000
4	2269	2.1332740359	1000
4	2282	2.151644010615	1000
4	2289	2.159962407849	1000
4	2301	2.160582602719	1000
4	2314	2.174994253598	1000
4	2335	2.233543848254	1000
4	2341	2.237275461914	1000
4	2359	2.250914619857	1000
4	2374	2.274880683467	1000
4	2386	2.291556808232	1000
4	2400	2.331612020238	1000
4	2412	2.341307780879	1000
4	2418	2.344172815353	1000
4	2422	2.34719199871	1000
4	2435	2.350154309936	1000
4	2448	2.360270055241	1000
4	2460	2.367490203079	1000
4	2491	2.409663947245	1000
4	2503	2.423357602079	1000
4	2509	2.424427453559	1000
4	2513	2.425124321904	1000
4	2526	2.433153686588	1000
4	2554	2.458697727722	1000
4	2569	2.503658063088	1000
4	2581	2.515195337947	1000
4	2594	2.524579046598	1000
4	2608	2.547719368241	1000
4	2620	2.564062548933	1000
4	2627	2.571877317716	1000
4	2646	2.585441584267	1000
4	2659	2.596650308258	1000
4	2672	2.611700747499	1000
4	2679	2.619307907732	1000
4	2691	2.626613902697	1000
4	2712	2.655040920747	1000
4	2718	2.656812073142	1000
4	2722	2.659936290081	1000
4	2750	2.685539049531	1000
4	2764	2.713713174668	1000
4	2776	2.726167375574	1000
4	2782	2.730878251912	1000
4	2795	2.73967866399	1000
4	2799	2.739679328213	1000
4	2811	2.744164487739	1000
4	2816	2.750814537688	1000
4	2847	2.776803701858	1000
4	2867	2.790472393666	1000
4	2874	2.797780929019	1000
4	2886	2.805706965976	1000
4	2906	2.82436292123	1000
4	2913	2.827490602783	1000
4	2933	2.85296356263	1000
4	2939	2.857480714848	1000
4	2959	2.895365861345	1000
4	2965	2.903024124612	1000
4	2984	2.917944333947	1000
4	2990	2.919946829642	1000
4	3009	2.93567849806	1000
4	3023	2.948148965699	1000
4	3029	2.951052001436	1000
4	3033	2.953528297359	1000
4	3055	2.973305211437	1000
4	3075	2.989801370883	1000
4	3088	3.003282896878	1000
4	3094	3.00717328624	1000
4	3099	3.00948042353	1000
4	3120	3.024108415672	1000
4	3133	3.031572858701	1000
4	3153	3.053596019536	1000
4	3160	3.056346951438	1000
4	3164	3.058510243033	1000
4	3168	3.060110330512	1000
4	3189	3.07547542276	1000
4	3193	3.075846538259	1000
4	3215	3.092338654432	1000
4	3219	3.093504666572	1000
4	3231	3.096447043684	1000
4	3245	3.113046841278	1000
4	3267	3.128834356378	1000
4	3271	3.129394609302	1000
4	3284	3.132210479493	1000
4	3288	3.136268336071	1000
4	3310	3.149839357821	1000
4	3314	3.150620712198	1000
4	3327	3.160354404465	1000
4	3331	3.160465800758	1000
4	3361	3.181945676012	1000
4	3401	3.231817329159	1000
4	3413	3.246405614839	1000
4	3419	3.24881092118	1000
4	3432	3.257429878941	1000
4	3445	3.267852667719	1000
4	3465	3.286440807869	1000
4	3478	3.297632150132	1000
4	3484	3.300589139999	1000
4	3497	3.307876491462	1000
4	3518	3.333207156755	1000
4	3524	3.34134078078	1000
4	3543	3.356427624727	1000
4	3550	3.364417734567	1000
4	3569	3.379212300123	1000
4	3576	3.387485514577	1000
4	3596	3.409822694293	1000
4	3602	3.412415848892	1000
4	3621	3.430226758684	1000
4	3635	3.474142646653	1000
4	3648	3.497935633508	1000
4	3660	3.516128460666	1000
4	3674	3.566550773781	1000
4	3686	3.583358882145	1000
4	3692	3.583407558001	1000
4	3697	3.587175532778	1000
4	3709	3.593517139518	1000
4	3713	3.600225231558	1000
4	3726	3.604468390461	1000
4	3739	3.610620966173	1000
4	3743	3.61216392902	1000
4	3790	3.659535528231	1000
4	3797	3.665788474084	1000
4	3809	3.675894109718	1000
4	3822	3.680946029295	1000
4	3842	3.699609561619	1000
4	3849	3.70596910057	1000
4	3861	3.711310892643	1000
4	3873	3.717430782649	1000
4	3878	3.721742309511	1000
4	3900	3.739653895481	1000
4	3921	3.770932757109	1000
4	3927	3.775654786042	1000
4	3947	3.81231310339	1000
4	3953	3.812481662485	1000
4	3965	3.821630746696	1000
4	3969	3.825989653323	1000
4	3998	3.851722278897	1000
4	4004	3.855184431421	1000
4	4023	3.868760976632	1000
4	4038	3.888716566	1000
4	4044	3.8955073005	1000
4	4063	3.912245729595	1000
4	4077	3.933481167474	1000
4	4083	3.939198910465	1000
4	4087	3.940417319472	1000
4	4099	3.943968141951	1000
4	4112	3.954724092411	1000
4	4125	3.96249018886	1000
4	4138	3.970521823324	1000
4	4151	3.977883092399	1000
4	4164	3.9868060907	1000
4	4176	3.993807175952	1000
4	4199	4.016785283044	1000
4	4212	4.023603328849	1000
4	4232	4.044647904589	1000
4	4245	4.053192001376	1000
4	4251	4.054276048305	1000
4	4264	4.067223171207	1000
4	4268	4.07000022287	1000
4	4297	4.092549644081	1000
4	4310	4.106273931528	1000
4	4316	4.108631474159	1000
4	4320	4.10950050348	1000
4	4324	4.109617328392	1000
4	4355	4.136330336265	1000
4	4359	4.138049372522	1000
4	4381	4.156174911737	1000
4	4402	4.187284295042	1000
4	4414	4.202355016854	1000
4	4421	4.210454428538	1000
4	4433	4.218061614056	1000
4	4454	4.243778810461	1000
4	4460	4.25182159298	1000
4	4472	4.258246445193	1000
4	4476	4.260541997744	1000
4	4489	4.268280899638	1000
4	4517	4.286651080665	1000
4	4531	4.296405860999	1000
4	4537	4.298496202923	1000
4	4541	4.300359629949	1000
4	4554	4.312939099208	1000
4	4575	4.322237207762	1000
4	4580	4.326965898625	1000
4	4584	4.328874042827	1000
4	4596	4.330964427426	1000
4	4601	4.332627469283	1000
4	4614	4.343006726596	1000
4	4618	4.344168296264	1000
4	4657	4.37313649343	1000
4	4661	4.374175897363	1000
4	4684	4.393511881352	1000
4	4713	4.418671516634	1000
4	4719	4.419848950906	1000
4	4724	4.426516857864	1000
4	4736	4.434208540407	1000
4	4757	4.444624180191	1000
4	4771	4.459739874238	1000
4	4775	4.460069179443	1000
4	4797	4.47584344462	1000
4	4817	4.493322167159	1000
4	4823	4.493439940396	1000
4	4828	4.497862935671	1000
4	4832	4.501044052888	1000
4	4844	4.509444360521	1000
4	4883	4.546321263194	1000
4	4895	4.556113485962	1000
4	4901	4.557344108678	1000
4	4914	4.569008239371	1000
4	4935	4.592863512829	1000
4	4941	4.594921976357	1000
4	4961	4.653523964241	1000
4	4967	4.654589952833	1000
4	4971	4.655780611151	1000
4	4983	4.667829225238	1000
4	5013	4.703610581126	1000
4	5026	4.736737834594	1000
4	5032	4.743854813762	1000
4	5051	4.759464862892	1000
4	5064	4.775733485058	1000
4	5071	4.780133946904	1000
4	5075	4.78166482979	1000
4	5087	4.78870605547	1000
4	5100	4.794672566906	1000
4	5113	4.803780144197	1000
4	5135	4.826179829839	1000
4	5154	4.835401380768	1000
4	5168	4.849084727291	1000
4	5181	4.860358751121	1000
4	5187	4.861602801161	1000
4	5191	4.862761296509	1000
4	5195	4.863452411511	1000
4	5199	4.864538501153	1000
4	5204	4.867787193842	1000
4	5234	4.889741699712	1000
4	5247	4.898608739951	1000
4	5260	4.907244478723	1000
4	5273	4.919836584714	1000
4	5294	4.929275293817	1000
4	5298	4.929671341638	1000
4	5312	4.940085684077	1000
4	5334	4.957778750774	1000
4	5346	4.963442367827	1000
4	5359	4.971546638269	1000
5	50	0.064008196043	1008
5	71	0.085708627214	1008
5	77	0.090647563169	1008
5	95	0.103182913269	1008
5	102	0.108693890916	1008
5	123	0.14649593006	1008
5	129	0.148310700304	1008
5	148	0.172801406895	1008
5	155	0.180501916967	1008
5	175	0.199869941866	1008
5	187	0.20868951492	1008
5	200	0.222320782221	1008
5	213	0.237623514648	1008
5	226	0.248091368989	1008
5	239	0.257341384891	1008
5	252	0.274397761052	1008
5	258	0.27574111498	1008
5	271	0.283441451404	1008
5	275	0.285915890788	1008
5	297	0.301939373003	1008
5	301	0.304867954892	1008
5	305	0.30661129122	1008
5	318	0.311312540948	1008
5	322	0.313258178821	1008
5	326	0.316275482006	1008
5	339	0.322138166598	1008
5	370	0.350085127089	1008
5	383	0.357258080011	1008
5	404	0.368652015013	1008
5	434	0.396568227753	1008
5	440	0.397822962462	1008
5	461	0.439825526675	1008
[...]
19	1501	1.489500140702	110
19	1514	1.500154477627	111
19	1527	1.513088496237	112
19	1545	1.522230909493	113
19	1558	1.530734909493	114
19	1571	1.539238909493	115
19	1584	1.547742909493	116
19	1597	1.556246909493	117
19	1604	1.564750909493	118
19	1623	1.573436080053	119
19	1636	1.581940080053	120
19	1643	1.590444080053	121
19	1656	1.599911435561	122
19	1684	1.62520080682	123
19	1692	1.63370480682	124
19	1709	1.64220880682	125
19	1718	1.65071280682	126
19	1727	1.65921680682	127
19	1734	1.66772080682	128
19	1758	1.684622271822	129
19	1774	1.693126271822	130
19	1783	1.701630271822	131
19	1792	1.710134271822	132
19	1799	1.718638271822	133
19	1819	1.744977898875	134
19	1831	1.753481898875	135
19	1848	1.761985898875	136
19	1861	1.770489898875	137
19	1874	1.778993898875	138
19	1883	1.787497898875	139
19	1896	1.796001898875	140
19	1903	1.804505898875	141
19	1923	1.829317696338	142
19	1939	1.837821696338	143
19	1948	1.846325696338	144
19	1961	1.854829696338	145
19	1968	1.863333696338	146
19	1992	1.882628289056	147
19	2004	1.891132289056	148
19	2013	1.899636289056	149
19	2020	1.908140289056	150
19	2040	1.939801419209	151
19	2056	1.948305419209	152
19	2077	1.956809419209	153
19	2086	1.965313419209	154
19	2099	1.973817419209	155
19	2108	1.982321419209	156
19	2117	1.990825419209	157
19	2124	1.999329419209	158
19	2138	2.013366903219	159
19	2157	2.030002399443	160
19	2169	2.038506399443	161
19	2190	2.047010399443	162
19	2203	2.055514399443	163
19	2212	2.064018399443	164
19	2221	2.072522399443	165
19	2234	2.081026399443	166
19	2241	2.089530399443	167
19	2255	2.119637277047	168
19	2268	2.13088294166	169
19	2281	2.141778509988	170
19	2300	2.160148484703	171
19	2312	2.168652484703	172
19	2325	2.177156484703	173
19	2332	2.185660484703	174
19	2352	2.242048322342	175
19	2358	2.250552322342	176
19	2371	2.259419093945	177
19	2385	2.283385157555	178
19	2398	2.30006128232	179
19	2411	2.340116494326	180
19	2433	2.349812254967	181
19	2446	2.358316254967	182
19	2459	2.366820254967	183
19	2472	2.375324254967	184
19	2481	2.383828254967	185
19	2488	2.392332254967	186
19	2502	2.418168421333	187
19	2525	2.431862076167	188
19	2537	2.440366076167	189
19	2546	2.448870076167	190
19	2553	2.457374076167	191
19	2566	2.46720220181	192
19	2580	2.512162537176	193
19	2593	2.523699812035	194
19	2605	2.533083520686	195
19	2619	2.556223842329	196
19	2638	2.572567023021	197
19	2644	2.581071023021	198
19	2658	2.593946058355	199
19	2671	2.605154782346	200
19	2690	2.620205221587	201
19	2702	2.628709221587	202
19	2709	2.637213221587	203
19	2733	2.663545394835	204
19	2741	2.672049394835	205
19	2748	2.680553394835	206
19	2762	2.694043523619	207
19	2775	2.722217648756	208
19	2794	2.734671849662	209
19	2810	2.743175849662	210
19	2827	2.751679849662	211
19	2836	2.760183849662	212
19	2845	2.768687849662	213
19	2858	2.777191849662	214
19	2865	2.785695849662	215
19	2885	2.798976867754	216
19	2897	2.807480867754	217
19	2904	2.815984867754	218
19	2924	2.832867395318	219
19	2930	2.841371395318	220
19	2950	2.861468036718	221
19	2956	2.869972036718	222
19	2976	2.903870335433	223
19	2982	2.912374335433	224
19	3002	2.926448808035	225
19	3008	2.934952808035	226
19	3021	2.944182972148	227
19	3045	2.956653439787	228
19	3053	2.965157439787	229
19	3066	2.973661439787	230
19	3073	2.982165439787	231
19	3087	2.998305844971	232
19	3110	3.011787370966	233
19	3118	3.020291370966	234
19	3131	3.028795370966	235
19	3144	3.037299370966	236
19	3151	3.045803370966	237
19	3179	3.062100493624	238
19	3187	3.070604493624	239
19	3204	3.079108493624	240
19	3213	3.087612493624	241
19	3230	3.096116493624	242
19	3243	3.104620493624	243
19	3256	3.113124493624	244
19	3265	3.121628493624	245
19	3282	3.130132493624	246
19	3299	3.138636493624	247
19	3308	3.147140493624	248
19	3325	3.155644493624	249
19	3342	3.164148493624	250
19	3351	3.172652493624	251
19	3360	3.181156493624	252
19	3373	3.189660493624	253
19	3382	3.198164493624	254
19	3391	3.206668493624	255
19	3398	3.215172493624	256
19	3412	3.240321803247	257
19	3431	3.254910088927	258
19	3443	3.263414088927	259
19	3456	3.271918088927	260
19	3463	3.280422088927	261
19	3477	3.294945281957	262
19	3496	3.30613662422	263
19	3508	3.31464062422	264
19	3515	3.32314462422	265
19	3535	3.341711630843	266
19	3541	3.350215630843	267
19	3561	3.364932098815	268
19	3567	3.373436098815	269
19	3587	3.387716774211	270
19	3593	3.396220774211	271
19	3613	3.418327168381	272
19	3619	3.426831168381	273
19	3633	3.438731232772	274
19	3646	3.482647120741	275
19	3659	3.506440107596	276
19	3672	3.524632934754	277
19	3685	3.575055247869	278
19	3708	3.591863356233	279
19	3724	3.600367356233	280
19	3737	3.608871356233	281
19	3754	3.617375356233	282
19	3763	3.625879356233	283
19	3772	3.634383356233	284
19	3781	3.642887356233	285
19	3788	3.651391356233	286
19	3808	3.668040002319	287
19	3820	3.676544002319	288
19	3833	3.685048002319	289
19	3840	3.693552002319	290
19	3860	3.708114035707	291
19	3872	3.716618035707	292
19	3889	3.725122035707	293
19	3898	3.733626035707	294
19	3911	3.742130035707	295
19	3918	3.750634035707	296
19	3938	3.779437231197	297
19	3944	3.787941231197	298
19	3964	3.820817577478	299
19	3980	3.829321577478	300
19	3989	3.837825577478	301
19	3996	3.846329577478	302
19	4016	3.860226752985	303
19	4022	3.868730752985	304
19	4035	3.87726545072	305
19	4055	3.897221040088	306
19	4061	3.905725040088	307
19	4075	3.920750203683	308
19	4098	3.941985641562	309
19	4110	3.950489641562	310
19	4123	3.958993641562	311
19	4136	3.967497641562	312
19	4149	3.976001641562	313
19	4162	3.984505641562	314
19	4175	3.993009641562	315
19	4188	4.001513641562	316
19	4197	4.010017641562	317
19	4210	4.018521641562	318
19	4223	4.027025641562	319
19	4230	4.035529641562	320
19	4244	4.053152378677	321
19	4262	4.061696475464	322
19	4279	4.070200475464	323
19	4288	4.078704475464	324
19	4295	4.087208475464	325
19	4309	4.101054118169	326
19	4336	4.114778405616	327
19	4344	4.123282405616	328
19	4353	4.131786405616	329
19	4370	4.140290405616	330
19	4379	4.148794405616	331
19	4392	4.157298405616	332
19	4399	4.165802405616	333
19	4413	4.19578876913	334
19	4432	4.210859490942	335
19	4444	4.219363490942	336
19	4451	4.227867490942	337
19	4471	4.252283284549	338
19	4487	4.260787284549	339
19	4500	4.269291284549	340
19	4509	4.277795284549	341
19	4516	4.286299284549	342
19	4529	4.295155554753	343
19	4552	4.304910335087	344
19	4565	4.313414335087	345
19	4574	4.321918335087	346
19	4595	4.330422335087	347
19	4612	4.338926335087	348
19	4629	4.347430335087	349
19	4638	4.355934335087	350
19	4647	4.364438335087	351
19	4656	4.372942335087	352
19	4673	4.381446335087	353
19	4682	4.389950335087	354
19	4695	4.398454335087	355
19	4704	4.406958335087	356
19	4711	4.415462335087	357
19	4735	4.427175990722	358
19	4747	4.435679990722	359
19	4756	4.444183990722	360
19	4769	4.452687990722	361
19	4786	4.461191990722	362
19	4795	4.469695990722	363
19	4808	4.478199990722	364
19	4815	4.486703990722	365
19	4843	4.501826641247	366
19	4855	4.510330641247	367
19	4864	4.518834641247	368
19	4873	4.527338641247	369
19	4880	4.535842641247	370
19	4894	4.554825737282	371
19	4912	4.56461796005	372
19	4925	4.57312196005	373
19	4932	4.58162596005	374
19	4952	4.601367986917	375
19	4958	4.609871986917	376
19	4982	4.662028438329	377
19	4994	4.670532438329	378
19	5003	4.679036438329	379
19	5010	4.687540438329	380
19	5024	4.712115055214	381
19	5043	4.745242308682	382
19	5049	4.753746308682	383
19	5063	4.76796933698	384
19	5086	4.784237959146	385
19	5098	4.792741959146	386
19	5111	4.801245959146	387
19	5124	4.809749959146	388
19	5133	4.818253959146	389
19	5146	4.826757959146	390
19	5153	4.835261959146	391
19	5166	4.843905854856	392
19	5180	4.857589201379	393
19	5215	4.868863225209	394
19	5223	4.877367225209	395
19	5232	4.885871225209	396
19	5245	4.894375225209	397
19	5258	4.902879225209	398
19	5271	4.911383225209	399
19	5284	4.919887225209	400
19	5293	4.928391225209	401
19	5310	4.936895225209	402
19	5323	4.945399225209	403
19	5332	4.953903225209	404
19	5345	4.962407225209	405
19	5358	4.970911225209	406
19	5371	4.979415225209	407
19	5380	4.987919225209	408
19	5387	4.996423225209	409
20	93	0.1	480000
20	185	0.2	560000
20	315	0.3	720000
20	451	0.4	880000
20	554	0.5	640000
20	627	0.6	480000
20	717	0.7	560000
20	809	0.8	560000
20	886	0.9	480000
20	1026	1	480000
20	1112	1.1	480000
20	1228	1.2	720000
20	1358	1.3	880000
20	1416	1.4	320000
20	1514	1.5	640000
20	1684	1.6	960000
20	1783	1.7	640000
20	1903	1.8	800000
20	2020	1.9	720000
20	2138	2	720000
20	2255	2.1	720000
20	2352	2.2	560000
20	2398	2.3	320000
20	2502	2.4	640000
20	2580	2.5	480000
20	2671	2.6	560000
20	2775	2.7	640000
20	2897	2.8	720000
20	2976	2.9	480000
20	3110	3	800000
20	3243	3.1	800000
20	3391	3.2	960000
20	3496	3.3	640000
20	3613	3.4	720000
20	3659	3.5	320000
20	3724	3.6	320000
20	3860	3.7	880000
20	3964	3.8	640000
20	4061	3.9	640000
20	4188	4	720000
20	4309	4.1	800000
20	4432	4.2	720000
20	4552	4.3	720000
20	4704	4.4	960000
20	4843	4.5	800000
20	4952	4.6	720000
20	5024	4.7	480000
20	5111	4.8	480000
20	5258	4.9	880000
vector 21 HybridMeter_Net.PLC_BN.mac PLCAccessDelay ETV
vector 22 HybridMeter_Net.PLC_SN[5].mac I_received_BCN ETV
vector 23 HybridMeter_Net.PLC_SN[6].mac I_received_BCN ETV
vector 24 HybridMeter_Net.PLC_SN[7].mac I_received_BCN ETV
vector 25 HybridMeter_Net.PLC_SN[0].mac I_received_BCN ETV
vector 26 HybridMeter_Net.PLC_SN[1].mac I_received_BCN ETV
vector 27 HybridMeter_Net.PLC_SN[2].mac I_received_BCN ETV
vector 28 HybridMeter_Net.PLC_SN[8].mac I_received_BCN ETV
vector 29 HybridMeter_Net.PLC_SN[9].mac I_received_BCN ETV
vector 30 HybridMeter_Net.PLC_SN[3].mac I_received_BCN ETV
vector 31 HybridMeter_Net.PLC_SN[4].mac I_received_BCN ETV
0	5441	5.01951739999	3
0	5444	5.02802139999	2
0	5454	5.039259601115	3
0	5457	5.047763601115	2
0	5466	5.051520221284	3
0	5474	5.060024221284	2
0	5474	5.060024221284	3
0	5486	5.068528221284	2
0	5486	5.068528221284	3
0	5495	5.077032221284	2
0	5505	5.080953232528	3
0	5513	5.089457232528	2
0	5513	5.089457232528	3
0	5525	5.097961232528	2
0	5525	5.097961232528	3
0	5538	5.106465232528	2
0	5538	5.106465232528	3
0	5551	5.114969232528	2
0	5551	5.114969232528	3
0	5560	5.123473232528	2
0	5571	5.144835246761	3
0	5574	5.153339246761	2
0	5584	5.167920109609	3
0	5591	5.176424109609	2
0	5591	5.176424109609	3
2	5441	5.01951739999	0
2	5444	5.02802139999	1
2	5454	5.039259601115	0
2	5457	5.047763601115	1
2	5466	5.051520221284	0
2	5474	5.060024221284	1
2	5474	5.060024221284	0
2	5486	5.068528221284	1
2	5486	5.068528221284	0
2	5495	5.077032221284	1
2	5505	5.080953232528	0
2	5513	5.089457232528	1
2	5513	5.089457232528	0
2	5525	5.097961232528	1
2	5525	5.097961232528	0
2	5538	5.106465232528	1
2	5538	5.106465232528	0
2	5551	5.114969232528	1
2	5551	5.114969232528	0
2	5560	5.123473232528	1
2	5571	5.144835246761	0
2	5574	5.153339246761	1
2	5584	5.167920109609	0
2	5591	5.176424109609	1
2	5591	5.176424109609	0
3	5443	5.019517874078	3
3	5445	5.028021874078	1
3	5456	5.039260075203	3
3	5458	5.047764075203	1
3	5468	5.051520695372	3
3	5476	5.060024695372	2
3	5477	5.060024695372	3
3	5488	5.068528695372	2
3	5489	5.068528695372	3
3	5496	5.077032695372	1
3	5507	5.080953706616	3
3	5515	5.089457706616	2
3	5516	5.089457706616	3
3	5527	5.097961706616	2
3	5528	5.097961706616	3
3	5540	5.106465706616	2
3	5541	5.106465706616	3
3	5553	5.114969706616	2
3	5554	5.114969706616	3
3	5561	5.123473706616	1
3	5573	5.144835720849	3
3	5575	5.153339720849	1
3	5586	5.167920583697	3
4	5438	5.01951739999	1000
4	5451	5.039259601115	1000
4	5463	5.051520221284	1000
4	5469	5.057028556414	1000
4	5482	5.061529299731	1000
4	5502	5.080953232528	1000
4	5508	5.081829852414	1000
4	5521	5.095637803529	1000
4	5534	5.101388355863	1000
4	5547	5.113447555572	1000
4	5568	5.144835246761	1000
4	5581	5.167920109609	1000
4	5587	5.176182276266	1000
5	5439	5.01951739999	1008
5	5452	5.039259601115	1008
5	5464	5.051520221284	1008
5	5470	5.057028556414	1008
5	5483	5.061529299731	1008
5	5503	5.080953232528	1008
5	5509	5.081829852414	1008
5	5522	5.095637803529	1008
5	5535	5.101388355863	1008
5	5548	5.113447555572	1008
5	5569	5.144835246761	1008
5	5582	5.167920109609	1008
5	5588	5.176182276266	1008
6	5441	5.01951739999	1028
6	5454	5.039259601115	1028
6	5466	5.051520221284	1028
6	5472	5.057028556414	1028
6	5485	5.061529299731	1028
6	5505	5.080953232528	1028
6	5511	5.081829852414	1028
6	5524	5.095637803529	1028
6	5537	5.101388355863	1028
6	5550	5.113447555572	1028
6	5571	5.144835246761	1028
6	5584	5.167920109609	1028
6	5590	5.176182276266	1028
7	5441	5.01951739999	1028
7	5454	5.039259601115	1028
7	5466	5.051520221284	1028
7	5472	5.057028556414	1028
7	5485	5.061529299731	1028
7	5505	5.080953232528	1028
7	5511	5.081829852414	1028
7	5524	5.095637803529	1028
7	5537	5.101388355863	1028
7	5550	5.113447555572	1028
7	5571	5.144835246761	1028
7	5584	5.167920109609	1028
7	5590	5.176182276266	1028
8	5441	5.01951739999	1
8	5441	5.01951739999	0
8	5454	5.039259601115	1
8	5454	5.039259601115	0
8	5466	5.051520221284	1
8	5466	5.051520221284	0
8	5472	5.057028556414	1
8	5474	5.060024221284	0
8	5485	5.061529299731	1
8	5486	5.068528221284	0
8	5505	5.080953232528	1
8	5505	5.080953232528	0
8	5511	5.081829852414	1
8	5513	5.089457232528	0
8	5524	5.095637803529	1
8	5525	5.097961232528	0
8	5537	5.101388355863	1
8	5538	5.106465232528	0
8	5550	5.113447555572	1
8	5551	5.114969232528	0
8	5571	5.144835246761	1
8	5571	5.144835246761	0
8	5584	5.167920109609	1
8	5584	5.167920109609	0
8	5590	5.176182276266	1
8	5591	5.176424109609	0
9	5441	5.01951739999	1028
9	5454	5.039259601115	1028
9	5466	5.051520221284	1028
9	5474	5.060024221284	1028
9	5486	5.068528221284	1028
9	5505	5.080953232528	1028
9	5513	5.089457232528	1028
9	5525	5.097961232528	1028
9	5538	5.106465232528	1028
9	5551	5.114969232528	1028
9	5571	5.144835246761	1028
9	5584	5.167920109609	1028
9	5591	5.176424109609	1028
10	5441	5.01951739999	0
10	5454	5.039259601115	0
10	5466	5.051520221284	0
10	5474	5.060024221284	0.00299566487
10	5486	5.068528221284	0.006998921553
10	5505	5.080953232528	0
10	5513	5.089457232528	0.007627380114
10	5525	5.097961232528	0.002323428999
10	5538	5.106465232528	0.005076876665
10	5551	5.114969232528	0.001521676956
10	5571	5.144835246761	0
10	5584	5.167920109609	0
10	5591	5.176424109609	0.000241833343
11	5441	5.01951739999	1
11	5442	5.01951739999	2
11	5444	5.02802139999	1
11	5444	5.02802139999	0
11	5454	5.039259601115	1
11	5455	5.039259601115	2
11	5457	5.047763601115	1
11	5457	5.047763601115	0
11	5466	5.051520221284	1
11	5467	5.051520221284	2
11	5474	5.060024221284	1
11	5474	5.060024221284	0
11	5474	5.060024221284	1
11	5475	5.060024221284	2
11	5486	5.068528221284	1
11	5486	5.068528221284	0
11	5486	5.068528221284	1
11	5487	5.068528221284	2
11	5495	5.077032221284	1
11	5495	5.077032221284	0
11	5505	5.080953232528	1
11	5506	5.080953232528	2
11	5513	5.089457232528	1
11	5513	5.089457232528	0
11	5513	5.089457232528	1
11	5514	5.089457232528	2
11	5525	5.097961232528	1
11	5525	5.097961232528	0
11	5525	5.097961232528	1
11	5526	5.097961232528	2
11	5538	5.106465232528	1
11	5538	5.106465232528	0
11	5538	5.106465232528	1
11	5539	5.106465232528	2
11	5551	5.114969232528	1
11	5551	5.114969232528	0
11	5551	5.114969232528	1
11	5552	5.114969232528	2
11	5560	5.123473232528	1
11	5560	5.123473232528	0
11	5571	5.144835246761	1
11	5572	5.144835246761	2
11	5574	5.153339246761	1
11	5574	5.153339246761	0
11	5584	5.167920109609	1
11	5585	5.167920109609	2
11	5591	5.176424109609	1
11	5591	5.176424109609	0
11	5591	5.176424109609	1
11	5592	5.176424109609	2
12	5441	5.01951739999	1051
12	5454	5.039259601115	1051
12	5466	5.051520221284	1051
12	5474	5.060024221284	1051
12	5486	5.068528221284	1051
12	5505	5.080953232528	1051
12	5513	5.089457232528	1051
12	5525	5.097961232528	1051
12	5538	5.106465232528	1051
12	5551	5.114969232528	1051
12	5571	5.144835246761	1051
12	5584	5.167920109609	1051
12	5591	5.176424109609	1051
13	5446	5.028021874078	1051
13	5459	5.047764075203	1051
13	5478	5.060024695372	1051
13	5490	5.068528695372	1051
13	5497	5.077032695372	1051
13	5517	5.089457706616	1051
13	5529	5.097961706616	1051
13	5542	5.106465706616	1051
13	5555	5.114969706616	1051
13	5562	5.123473706616	1051
13	5576	5.153339720849	1051
14	5446	5.028021874078	1028
14	5459	5.047764075203	1028
14	5478	5.060024695372	1028
14	5490	5.068528695372	1028
14	5497	5.077032695372	1028
14	5517	5.089457706616	1028
14	5529	5.097961706616	1028
14	5542	5.106465706616	1028
14	5555	5.114969706616	1028
14	5562	5.123473706616	1028
14	5576	5.153339720849	1028
15	5448	5.028021874078	1008
15	5461	5.047764075203	1008
15	5480	5.060024695372	1008
15	5492	5.068528695372	1008
15	5499	5.077032695372	1008
15	5519	5.089457706616	1008
15	5531	5.097961706616	1008
15	5544	5.106465706616	1008
15	5557	5.114969706616	1008
15	5564	5.123473706616	1008
15	5578	5.153339720849	1008
16	5448	5.028021874078	411
16	5461	5.047764075203	412
16	5480	5.060024695372	413
16	5492	5.068528695372	414
16	5499	5.077032695372	415
16	5519	5.089457706616	416
16	5531	5.097961706616	417
16	5544	5.106465706616	418
16	5557	5.114969706616	419
16	5564	5.123473706616	420
16	5578	5.153339720849	421
17	5449	5.028021874078	1000
17	5462	5.047764075203	1000
17	5481	5.060024695372	1000
17	5493	5.068528695372	1000
17	5500	5.077032695372	1000
17	5520	5.089457706616	1000
17	5532	5.097961706616	1000
17	5545	5.106465706616	1000
17	5558	5.114969706616	1000
17	5565	5.123473706616	1000
17	5579	5.153339720849	1000
18	5449	5.028021874078	0.008504474088
18	5462	5.047764075203	0.008504474088
18	5481	5.060024695372	0.008504474088
18	5493	5.068528695372	0.011500138958
18	5500	5.077032695372	0.015503395641
18	5520	5.089457706616	0.008504474088
18	5532	5.097961706616	0.016131854202
18	5545	5.106465706616	0.010827903087
18	5558	5.114969706616	0.013581350753
18	5565	5.123473706616	0.010026151044
18	5579	5.153339720849	0.008504474088
19	5449	5.028021874078	410
19	5462	5.047764075203	411
19	5481	5.060024695372	412
19	5493	5.068528695372	413
19	5500	5.077032695372	414
19	5520	5.089457706616	415
19	5532	5.097961706616	416
19	5545	5.106465706616	417
19	5558	5.114969706616	418
19	5565	5.123473706616	419
19	5579	5.153339720849	420
20	5449	5	960000
20	5545	5.1	560000
21	5389	5	0
22	5417	5.006729141968	7
23	5418	5.006729141968	8
24	5419	5.006729141968	9
25	5423	5.006729311968	2
26	5424	5.006729311968	3
27	5425	5.006729311968	4
28	5429	5.006729346968	10
29	5430	5.006729346968	11
30	5433	5.006729516968	5
31	5434	5.006729516968	6
vector 32 HybridMeter_Net.hostA.app[0] throughput:vector ETV
attr source throughput(packetReceived)
attr title "throughput, vector"
attr unit bps
20	5592	5.176424551989	418713.60926795
32	5592	0.1	0
32	5592	0.2	0
32	5592	0.3	0
32	5592	0.4	0
32	5592	0.5	0
32	5592	0.6	0
32	5592	0.7	0
32	5592	0.8	0
32	5592	0.9	0
32	5592	1	0
32	5592	1.1	0
32	5592	1.2	0
32	5592	1.3	0
32	5592	1.4	0
32	5592	1.5	0
32	5592	1.6	0
32	5592	1.7	0
32	5592	1.8	0
32	5592	1.9	0
32	5592	2	0
32	5592	2.1	0
32	5592	2.2	0
32	5592	2.3	0
32	5592	2.4	0
32	5592	2.5	0
32	5592	2.6	0
32	5592	2.7	0
32	5592	2.8	0
32	5592	2.9	0
32	5592	3	0
32	5592	3.1	0
32	5592	3.2	0
32	5592	3.3	0
32	5592	3.4	0
32	5592	3.5	0
32	5592	3.6	0
32	5592	3.7	0
32	5592	3.8	0
32	5592	3.9	0
32	5592	4	0
32	5592	4.1	0
32	5592	4.2	0
32	5592	4.3	0
32	5592	4.4	0
32	5592	4.5	0
32	5592	4.6	0
32	5592	4.7	0
32	5592	4.8	0
32	5592	4.9	0
32	5592	5	0
32	5592	5.1	0
32	5592	5.176424551989	0

